Z951199992
  MOLSOFT 11211612053D

 30 31  0  0  0  0  0  0  0  0999 V2000
  -35.8694    6.6146   67.3465 F   0  0  0
  -36.5304    7.4097   66.4597 C   0  0  0
  -36.3027    8.7116   66.7925 F   0  0  0
  -37.5973    7.1976   66.5296 H   0  0  0
  -36.0514    7.1553   65.1307 O   0  0  0
  -34.7342    7.5684   64.8975 C   0  0  0
  -33.8340    7.9207   65.8916 C   0  0  0
  -34.1067    7.8529   66.9373 H   0  0  0
  -32.5531    8.3385   65.5636 C   0  0  0
  -32.1564    8.3403   64.2380 C   0  0  0
  -31.1456    8.6247   63.9621 H   0  0  0
  -33.0431    7.9675   63.2513 C   0  0  0
  -32.7258    7.9637   62.2134 H   0  0  0
  -34.3289    7.5941   63.5793 C   0  0  0
  -35.0192    7.3202   62.7921 H   0  0  0
  -31.5837    8.6668   66.6103 C   0  0  0
  -30.6268    8.1635   66.5135 H   0  0  0
  -31.8119    9.4636   67.6693 C   0  0  0
  -30.8094    9.5734   68.7455 C   0  0  0
  -29.6772    9.1200   68.6588 O   0  0  0
  -31.3535   10.2502   69.8174 N   0  0  0
  -32.5927   10.8272   69.6209 C   0  0  0
  -33.4058   11.7930   70.7084 S   0  0  0
  -33.1974   10.4058   68.0423 S   0  0  0
  -30.5991   10.3720   71.0642 C   0  0  0
  -31.1055   11.0690   71.7370 H   0  0  0
  -29.6318   10.8065   70.8111 H   0  0  0
  -30.3554    9.0520   71.8271 C   0  0  0
  -29.7494    9.1897   72.9264 O   0  0  0
  -30.7836    7.9979   71.2723 O   0  5  0
  2  1  1
  2  3  1
  2  4  1
  2  5  1
  5  6  1
  6  7  1
  6 14  2
  7  8  1
  7  9  2
  9 10  1
  9 16  1
 10 11  1
 10 12  2
 12 13  1
 12 14  1
 14 15  1
 16 17  1
 16 18  2
 18 19  1
 18 24  1
 19 20  2
 19 21  1
 21 22  1
 21 25  1
 22 23  2
 22 24  1
 25 26  1
 25 27  1
 25 28  1
 28 29  2
 28 30  1
M  ZZC   1 f1
M  ZZC   2 c7
M  ZZC   3 f2
M  ZZC   4 h4
M  ZZC   5 o1
M  ZZC   6 c5
M  ZZC   7 c4
M  ZZC   8 h6
M  ZZC   9 c3
M  ZZC  10 c2
M  ZZC  11 h7
M  ZZC  12 c1
M  ZZC  13 h8
M  ZZC  14 c6
M  ZZC  15 h5
M  ZZC  16 c8
M  ZZC  17 h3
M  ZZC  18 c9
M  ZZC  19 c10
M  ZZC  20 o2
M  ZZC  21 n1
M  ZZC  22 c11
M  ZZC  23 s1
M  ZZC  24 s2
M  ZZC  25 c12
M  ZZC  26 h1
M  ZZC  27 h2
M  ZZC  28 c13
M  ZZC  29 o3
M  ZZC  30 o4
M  ZZM   1 11
M  ZZI   1 90
M  ZZM   2 1
M  ZZI   2 113
M  ZZM   3 11
M  ZZI   3 90
M  ZZM   4 5
M  ZZI   4 1
M  ZZM   5 6
M  ZZI   5 59
M  ZZM   6 37
M  ZZI   6 124
M  ZZM   7 37
M  ZZI   7 125
M  ZZM   8 5
M  ZZI   8 1
M  ZZM   9 37
M  ZZI   9 124
M  ZZM  10 37
M  ZZI  10 125
M  ZZM  11 5
M  ZZI  11 1
M  ZZM  12 37
M  ZZI  12 125
M  ZZM  13 5
M  ZZI  13 1
M  ZZM  14 37
M  ZZI  14 125
M  ZZM  15 5
M  ZZI  15 1
M  ZZM  16 2
M  ZZI  16 120
M  ZZM  17 5
M  ZZI  17 1
M  ZZM  18 2
M  ZZI  18 120
M  ZZM  19 3
M  ZZI  19 121
M  ZZM  20 7
M  ZZI  20 81
M  ZZM  21 10
M  ZZI  21 192
M  ZZM  22 3
M  ZZI  22 121
M  ZZM  23 16
M  ZZI  23 246
M  ZZM  24 15
M  ZZI  24 240
M  ZZM  25 1
M  ZZI  25 112
M  ZZM  26 5
M  ZZI  26 1
M  ZZM  27 5
M  ZZI  27 1
M  ZZM  28 41
M  ZZI  28 127
M  ZZM  29 32
M  ZZI  29 71
M  ZZM  30 32
M  ZZI  30 71
M  CHG  1  30  -1
M  END
> <NAME>
Z951199992

> <Score>
-25.227098

> <Natom>
30

> <Nflex>
3

> <Hbond>
-4.518989

> <Hphob>
-5.050481

> <VwInt>
-23.240498

> <Eintl>
7.709521

> <Dsolv>
12.878405

> <SolEl>
2.077973

> <mfScore>
-72.581033

> <RecConf>
1

> <molLogP>
2.877342

$$$$
Z1203804942
  MOLSOFT 11211612053D

 32 33  0  0  0  0  0  0  0  0999 V2000
  -36.3194    7.3612   65.0124 O   0  0  0
  -35.6827    7.6994   66.2703 S   0  0  0
  -36.3593    8.5461   67.2321 O   0  0  0
  -34.0878    8.3392   66.0255 N   0  0  0
  -33.4539    9.0522   67.1876 C   0  0  0
  -32.3782    8.8575   67.2348 H   0  0  0
  -33.8636    8.6816   68.1322 H   0  0  0
  -33.6926   10.5580   67.0720 C   0  0  0
  -33.1474   11.2591   66.2317 O   0  0  0
  -34.5982   11.0601   67.9724 N   0  0  0
  -34.8258   12.0492   67.9648 H   0  0  0
  -35.1427   10.4703   68.5929 H   0  0  0
  -33.4015    8.2193   64.7881 C   0  0  0
  -33.8420    7.7135   63.5897 C   0  0  0
  -34.7778    7.2845   63.2685 H   0  0  0
  -32.8249    7.8884   62.6986 N   0  0  0
  -32.8277    7.6754   61.7094 H   0  0  0
  -31.7226    8.4440   63.2327 N   0  0  0
  -32.0748    8.6354   64.5065 C   0  0  0
  -31.3535    9.0792   65.1765 H   0  0  0
  -35.3492    6.1240   67.0885 C   0  0  0
  -35.4594    6.0166   68.4665 C   0  0  0
  -35.6870    6.8853   69.0789 H   0  0  0
  -35.2870    4.7745   69.0562 C   0  0  0
  -35.3981    4.6342   70.4766 C   0  0  0
  -35.5020    4.5121   71.6259 N   0  0  0
  -35.0154    3.6635   68.2720 C   0  0  0
  -34.8804    2.6855   68.7263 H   0  0  0
  -34.9276    3.7812   66.8994 C   0  0  0
  -34.7295    2.9033   66.2908 H   0  0  0
  -35.1041    5.0103   66.3011 C   0  0  0
  -35.0513    5.0890   65.2207 H   0  0  0
  2  1  2
  2  3  2
  2  4  1
  2 21  1
  4  5  1
  4 13  1
  5  6  1
  5  7  1
  5  8  1
  8  9  2
  8 10  1
 10 11  1
 10 12  1
 13 14  2
 13 19  1
 14 15  1
 14 16  1
 16 17  1
 16 18  1
 18 19  2
 19 20  1
 21 22  1
 21 31  2
 22 23  1
 22 24  2
 24 25  1
 24 27  1
 25 26  3
 27 28  1
 27 29  2
 29 30  1
 29 31  1
 31 32  1
M  ZZC   1 o1
M  ZZC   2 s1
M  ZZC   3 o2
M  ZZC   4 n1
M  ZZC   5 c7
M  ZZC   6 h5
M  ZZC   7 h6
M  ZZC   8 c8
M  ZZC   9 o3
M  ZZC  10 n2
M  ZZC  11 h3
M  ZZC  12 h4
M  ZZC  13 c9
M  ZZC  14 c10
M  ZZC  15 h2
M  ZZC  16 n3
M  ZZC  17 h11
M  ZZC  18 n4
M  ZZC  19 c11
M  ZZC  20 h1
M  ZZC  21 c5
M  ZZC  22 c4
M  ZZC  23 h8
M  ZZC  24 c3
M  ZZC  25 c12
M  ZZC  26 n5
M  ZZC  27 c2
M  ZZC  28 h9
M  ZZC  29 c1
M  ZZC  30 h10
M  ZZC  31 c6
M  ZZC  32 h7
M  ZZM   1 32
M  ZZI   1 73
M  ZZM   2 18
M  ZZI   2 250
M  ZZM   3 32
M  ZZI   3 73
M  ZZM   4 43
M  ZZI   4 195
M  ZZM   5 1
M  ZZI   5 112
M  ZZM   6 5
M  ZZI   6 1
M  ZZM   7 5
M  ZZI   7 1
M  ZZM   8 3
M  ZZI   8 121
M  ZZM   9 7
M  ZZI   9 81
M  ZZM  10 10
M  ZZI  10 212
M  ZZM  11 28
M  ZZI  11 11
M  ZZM  12 28
M  ZZI  12 11
M  ZZM  13 64
M  ZZI  13 105
M  ZZM  14 63
M  ZZI  14 104
M  ZZM  15 5
M  ZZI  15 1
M  ZZM  16 39
M  ZZI  16 215
M  ZZM  17 23
M  ZZI  17 10
M  ZZM  18 65
M  ZZI  18 207
M  ZZM  19 64
M  ZZI  19 105
M  ZZM  20 5
M  ZZI  20 1
M  ZZM  21 37
M  ZZI  21 124
M  ZZM  22 37
M  ZZI  22 125
M  ZZM  23 5
M  ZZI  23 1
M  ZZM  24 37
M  ZZI  24 124
M  ZZM  25 4
M  ZZI  25 130
M  ZZM  26 42
M  ZZI  26 225
M  ZZM  27 37
M  ZZI  27 125
M  ZZM  28 5
M  ZZI  28 1
M  ZZM  29 37
M  ZZI  29 125
M  ZZM  30 5
M  ZZI  30 1
M  ZZM  31 37
M  ZZI  31 125
M  ZZM  32 5
M  ZZI  32 1
M  END
> <NAME>
Z1203804942

> <Score>
-27.22824

> <Natom>
32

> <Nflex>
5

> <Hbond>
-5.855022

> <Hphob>
-4.430577

> <VwInt>
-26.690934

> <Eintl>
2.743134

> <Dsolv>
10.60494

> <SolEl>
9.531335

> <mfScore>
-90.284785

> <RecConf>
1

> <molLogP>
0.009608

$$$$
Z219151446
  MOLSOFT 11211612053D

 36 38  0  0  0  0  0  0  0  0999 V2000
  -34.4618    2.6473   69.7378 Cl  0  0  0
  -34.9664    3.7627   68.5230 C   0  0  0
  -35.1614    5.0554   68.7901 C   0  0  0
  -35.0167    5.4898   69.7734 H   0  0  0
  -35.5618    5.8900   67.7760 N   0  0  0
  -35.7918    7.2348   67.8171 C   0  0  0
  -35.6545    7.8136   68.7198 H   0  0  0
  -36.1484    7.5940   66.5345 C   0  0  0
  -36.1872    6.4821   65.7220 N   0  0  0
  -35.7972    5.4818   66.4887 C   0  0  0
  -35.5922    4.1143   66.2113 C   0  0  0
  -35.7689    3.7464   65.2115 H   0  0  0
  -35.1849    3.2879   67.1841 C   0  0  0
  -35.0222    2.2362   66.9743 H   0  0  0
  -36.4457    8.9512   66.0053 C   0  0  0
  -37.3192    8.8980   65.3525 H   0  0  0
  -36.7281    9.6352   66.8070 H   0  0  0
  -35.3685    9.4938   65.2156 O   0  0  0
  -34.2112    9.6823   65.9739 C   0  0  0
  -32.9944    9.1824   65.5092 C   0  0  0
  -32.8185    8.5033   64.1924 C   0  0  0
  -31.6958    8.2438   63.7902 O   0  0  0
  -33.9395    8.2217   63.4623 N   0  0  0
  -33.8430    7.8431   62.5266 H   0  0  0
  -34.8776    8.4268   63.7831 H   0  0  0
  -31.8594    9.3409   66.2927 C   0  0  0
  -30.9041    8.9319   65.9758 H   0  0  0
  -31.9240   10.0330   67.4849 C   0  0  0
  -31.0275   10.1503   68.0847 H   0  0  0
  -33.1081   10.6066   67.9081 C   0  0  0
  -33.1367   11.4437   69.1522 C   0  0  0
  -34.1597   11.7237   69.4107 H   0  0  0
  -32.5656   12.3654   69.0024 H   0  0  0
  -32.7163   10.8917   69.9983 H   0  0  0
  -34.2516   10.4178   67.1531 C   0  0  0
  -35.1735   10.8735   67.4927 H   0  0  0
  2  1  1
  2  3  2
  2 13  1
  3  4  1
  3  5  1
  5  6  1
  5 10  1
  6  7  1
  6  8  2
  8  9  1
  8 15  1
  9 10  2
 10 11  1
 11 12  1
 11 13  2
 13 14  1
 15 16  1
 15 17  1
 15 18  1
 18 19  1
 19 20  1
 19 35  2
 20 21  1
 20 26  2
 21 22  2
 21 23  1
 23 24  1
 23 25  1
 26 27  1
 26 28  1
 28 29  1
 28 30  2
 30 31  1
 30 35  1
 31 32  1
 31 33  1
 31 34  1
 35 36  1
M  ZZC   1 &Cl1
M  ZZC   2 c12
M  ZZC   3 c11
M  ZZC   4 h5
M  ZZC   5 n1
M  ZZC   6 c10
M  ZZC   7 h6
M  ZZC   8 c9
M  ZZC   9 n2
M  ZZC  10 c15
M  ZZC  11 c14
M  ZZC  12 h3
M  ZZC  13 c13
M  ZZC  14 h4
M  ZZC  15 c8
M  ZZC  16 h7
M  ZZC  17 h8
M  ZZC  18 o1
M  ZZC  19 c6
M  ZZC  20 c5
M  ZZC  21 c16
M  ZZC  22 o2
M  ZZC  23 n3
M  ZZC  24 h1
M  ZZC  25 h2
M  ZZC  26 c4
M  ZZC  27 h10
M  ZZC  28 c3
M  ZZC  29 h11
M  ZZC  30 c2
M  ZZC  31 c1
M  ZZC  32 h12
M  ZZC  33 h13
M  ZZC  34 h14
M  ZZC  35 c7
M  ZZC  36 h9
M  ZZM   1 12
M  ZZI   1 92
M  ZZM   2 2
M  ZZI   2 120
M  ZZM   3 2
M  ZZI   3 120
M  ZZM   4 5
M  ZZI   4 1
M  ZZM   5 39
M  ZZI   5 215
M  ZZM   6 63
M  ZZI   6 104
M  ZZM   7 5
M  ZZI   7 1
M  ZZM   8 64
M  ZZI   8 105
M  ZZM   9 66
M  ZZI   9 222
M  ZZM  10 63
M  ZZI  10 104
M  ZZM  11 2
M  ZZI  11 120
M  ZZM  12 5
M  ZZI  12 1
M  ZZM  13 2
M  ZZI  13 120
M  ZZM  14 5
M  ZZI  14 1
M  ZZM  15 1
M  ZZI  15 112
M  ZZM  16 5
M  ZZI  16 1
M  ZZM  17 5
M  ZZI  17 1
M  ZZM  18 6
M  ZZI  18 59
M  ZZM  19 37
M  ZZI  19 124
M  ZZM  20 37
M  ZZI  20 124
M  ZZM  21 3
M  ZZI  21 121
M  ZZM  22 7
M  ZZI  22 81
M  ZZM  23 10
M  ZZI  23 212
M  ZZM  24 28
M  ZZI  24 11
M  ZZM  25 28
M  ZZI  25 11
M  ZZM  26 37
M  ZZI  26 125
M  ZZM  27 5
M  ZZI  27 1
M  ZZM  28 37
M  ZZI  28 125
M  ZZM  29 5
M  ZZI  29 1
M  ZZM  30 37
M  ZZI  30 124
M  ZZM  31 1
M  ZZI  31 111
M  ZZM  32 5
M  ZZI  32 1
M  ZZM  33 5
M  ZZI  33 1
M  ZZM  34 5
M  ZZI  34 1
M  ZZM  35 37
M  ZZI  35 125
M  ZZM  36 5
M  ZZI  36 1
M  END
> <NAME>
Z219151446

> <Score>
-28.765709

> <Natom>
36

> <Nflex>
2

> <Hbond>
-3.879286

> <Hphob>
-6.568179

> <VwInt>
-27.883562

> <Eintl>
3.130035

> <Dsolv>
9.923224

> <SolEl>
7.107133

> <mfScore>
-75.892494

> <RecConf>
1

> <molLogP>
2.698081

$$$$
Z1700087119
  MOLSOFT 11211612053D

 36 37  0  0  0  0  0  0  0  0999 V2000
  -34.3813    2.1571   69.3414 Cl  0  0  0
  -34.9270    3.5567   68.4896 C   0  0  0
  -35.1645    3.5032   67.1332 C   0  0  0
  -35.0261    2.5850   66.5701 H   0  0  0
  -35.5972    4.6562   66.5105 C   0  0  0
  -35.8108    4.6355   65.4475 H   0  0  0
  -35.7600    5.8256   67.2455 C   0  0  0
  -35.5309    5.8862   68.5694 N   0  0  0
  -35.1266    4.7494   69.1543 C   0  0  0
  -34.9555    4.8224   70.2236 H   0  0  0
  -36.2636    7.0881   66.5923 C   0  0  0
  -37.3560    7.0716   66.6420 H   0  0  0
  -35.9535    7.9869   67.1350 H   0  0  0
  -35.9104    7.1790   65.1993 O   0  0  0
  -34.5959    7.5714   64.9099 C   0  0  0
  -34.2605    7.5297   63.5728 C   0  0  0
  -34.9999    7.2371   62.8391 H   0  0  0
  -32.9939    7.8665   63.1527 C   0  0  0
  -32.7372    7.8197   62.1003 H   0  0  0
  -32.0513    8.2658   64.0703 C   0  0  0
  -31.0536    8.5319   63.7359 H   0  0  0
  -32.3774    8.3377   65.4079 C   0  0  0
  -33.6490    7.9764   65.8451 C   0  0  0
  -33.8946    8.0079   66.8962 H   0  0  0
  -31.3436    8.7819   66.2365 O   0  0  0
  -31.7703    9.3453   67.4881 C   0  0  0
  -32.3722    8.6346   68.0628 H   0  0  0
  -30.8635    9.5081   68.0789 H   0  0  0
  -32.4731   10.6905   67.3756 C   0  0  0
  -32.6590   11.2710   66.3138 O   0  0  0
  -32.8692   11.1755   68.6045 N   0  0  0
  -32.6824   10.6484   69.4505 H   0  0  0
  -33.5188   12.4539   68.7159 C   0  0  0
  -32.8262   13.2340   68.3913 H   0  0  0
  -33.8046   12.6171   69.7578 H   0  0  0
  -34.4006   12.4559   68.0727 H   0  0  0
  2  1  1
  2  3  2
  2  9  1
  3  4  1
  3  5  1
  5  6  1
  5  7  2
  7  8  1
  7 11  1
  8  9  2
  9 10  1
 11 12  1
 11 13  1
 11 14  1
 14 15  1
 15 16  1
 15 23  2
 16 17  1
 16 18  2
 18 19  1
 18 20  1
 20 21  1
 20 22  2
 22 23  1
 22 25  1
 23 24  1
 25 26  1
 26 27  1
 26 28  1
 26 29  1
 29 30  2
 29 31  1
 31 32  1
 31 33  1
 33 34  1
 33 35  1
 33 36  1
M  ZZC   1 &Cl1
M  ZZC   2 c14
M  ZZC   3 c13
M  ZZC   4 h2
M  ZZC   5 c12
M  ZZC   6 h3
M  ZZC   7 c11
M  ZZC   8 n2
M  ZZC   9 c15
M  ZZC  10 h1
M  ZZC  11 c10
M  ZZC  12 h4
M  ZZC  13 h5
M  ZZC  14 o3
M  ZZC  15 c8
M  ZZC  16 c7
M  ZZC  17 h7
M  ZZC  18 c6
M  ZZC  19 h8
M  ZZC  20 c5
M  ZZC  21 h9
M  ZZC  22 c4
M  ZZC  23 c9
M  ZZC  24 h6
M  ZZC  25 o2
M  ZZC  26 c3
M  ZZC  27 h10
M  ZZC  28 h11
M  ZZC  29 c2
M  ZZC  30 o1
M  ZZC  31 n1
M  ZZC  32 h12
M  ZZC  33 c1
M  ZZC  34 h13
M  ZZC  35 h14
M  ZZC  36 h15
M  ZZM   1 12
M  ZZI   1 92
M  ZZM   2 37
M  ZZI   2 124
M  ZZM   3 37
M  ZZI   3 125
M  ZZM   4 5
M  ZZI   4 1
M  ZZM   5 37
M  ZZI   5 125
M  ZZM   6 5
M  ZZI   6 1
M  ZZM   7 37
M  ZZI   7 124
M  ZZM   8 38
M  ZZI   8 223
M  ZZM   9 37
M  ZZI   9 125
M  ZZM  10 5
M  ZZI  10 1
M  ZZM  11 1
M  ZZI  11 112
M  ZZM  12 5
M  ZZI  12 1
M  ZZM  13 5
M  ZZI  13 1
M  ZZM  14 6
M  ZZI  14 59
M  ZZM  15 37
M  ZZI  15 124
M  ZZM  16 37
M  ZZI  16 125
M  ZZM  17 5
M  ZZI  17 1
M  ZZM  18 37
M  ZZI  18 125
M  ZZM  19 5
M  ZZI  19 1
M  ZZM  20 37
M  ZZI  20 125
M  ZZM  21 5
M  ZZI  21 1
M  ZZM  22 37
M  ZZI  22 124
M  ZZM  23 37
M  ZZI  23 125
M  ZZM  24 5
M  ZZI  24 1
M  ZZM  25 6
M  ZZI  25 59
M  ZZM  26 1
M  ZZI  26 112
M  ZZM  27 5
M  ZZI  27 1
M  ZZM  28 5
M  ZZI  28 1
M  ZZM  29 3
M  ZZI  29 121
M  ZZM  30 7
M  ZZI  30 81
M  ZZM  31 10
M  ZZI  31 211
M  ZZM  32 28
M  ZZI  32 11
M  ZZM  33 1
M  ZZI  33 111
M  ZZM  34 5
M  ZZI  34 1
M  ZZM  35 5
M  ZZI  35 1
M  ZZM  36 5
M  ZZI  36 1
M  END
> <NAME>
Z1700087119

> <Score>
-28.411671

> <Natom>
36

> <Nflex>
4

> <Hbond>
-3.116117

> <Hphob>
-7.212181

> <VwInt>
-29.567102

> <Eintl>
6.282109

> <Dsolv>
10.0881

> <SolEl>
5.91711

> <mfScore>
-91.670054

> <RecConf>
1

> <molLogP>
2.301709

$$$$
Z26326084
  MOLSOFT 11211612053D

 36 38  0  0  0  0  0  0  0  0999 V2000
  -34.6667    4.8453   69.9507 H   0  0  0
  -34.9241    4.6751   68.9102 C   0  0  0
  -34.8275    3.4151   68.3603 C   0  0  0
  -34.4875    2.5852   68.9720 H   0  0  0
  -35.1578    3.1952   67.0435 C   0  0  0
  -35.0621    2.1978   66.6283 H   0  0  0
  -35.6117    4.2221   66.2457 C   0  0  0
  -35.8929    4.0352   65.2183 H   0  0  0
  -35.7026    5.5009   66.7670 C   0  0  0
  -35.3339    5.7070   68.0880 C   0  0  0
  -35.4778    7.3741   68.4561 S   0  0  0
  -36.0031    7.6898   66.8502 C   0  0  0
  -36.1354    6.6208   66.0922 N   0  0  0
  -36.3101    9.0890   66.4335 C   0  0  0
  -37.3117    9.1216   65.9944 H   0  0  0
  -36.3207    9.7812   67.2787 H   0  0  0
  -35.3894    9.5382   65.4158 O   0  0  0
  -34.0522    9.3845   65.7921 C   0  0  0
  -33.4967   10.0687   66.8758 C   0  0  0
  -34.3124   10.9715   67.5676 O   0  0  0
  -33.5918   11.8474   68.4426 C   0  0  0
  -33.2137   11.3066   69.3160 H   0  0  0
  -34.2882   12.6055   68.8065 H   0  0  0
  -32.7884   12.3693   67.9116 H   0  0  0
  -32.1669    9.8416   67.2148 C   0  0  0
  -31.7025   10.3162   68.0716 H   0  0  0
  -31.3908    8.9912   66.4542 C   0  0  0
  -30.3572    8.8064   66.7305 H   0  0  0
  -31.9086    8.3891   65.3296 C   0  0  0
  -31.2656    7.7478   64.7368 H   0  0  0
  -33.2356    8.5951   64.9867 C   0  0  0
  -33.7726    7.9801   63.7460 C   0  0  0
  -34.9318    7.6159   63.6405 O   0  0  0
  -32.8862    7.8772   62.7138 N   0  0  0
  -33.2350    7.5346   61.8292 H   0  0  0
  -31.9134    8.1542   62.7459 H   0  0  0
  2  1  1
  2  3  2
  2 10  1
  3  4  1
  3  5  1
  5  6  1
  5  7  2
  7  8  1
  7  9  1
  9 10  2
  9 13  1
 10 11  1
 11 12  1
 12 13  2
 12 14  1
 14 15  1
 14 16  1
 14 17  1
 17 18  1
 18 19  2
 18 31  1
 19 20  1
 19 25  1
 20 21  1
 21 22  1
 21 23  1
 21 24  1
 25 26  1
 25 27  2
 27 28  1
 27 29  1
 29 30  1
 29 31  2
 31 32  1
 32 33  2
 32 34  1
 34 35  1
 34 36  1
M  ZZC   1 h3
M  ZZC   2 c14
M  ZZC   3 c13
M  ZZC   4 h4
M  ZZC   5 c12
M  ZZC   6 h5
M  ZZC   7 c11
M  ZZC   8 h6
M  ZZC   9 c10
M  ZZC  10 c15
M  ZZC  11 s1
M  ZZC  12 c9
M  ZZC  13 n1
M  ZZC  14 c8
M  ZZC  15 h7
M  ZZC  16 h8
M  ZZC  17 o2
M  ZZC  18 c7
M  ZZC  19 c2
M  ZZC  20 o1
M  ZZC  21 c1
M  ZZC  22 h12
M  ZZC  23 h13
M  ZZC  24 h14
M  ZZC  25 c3
M  ZZC  26 h11
M  ZZC  27 c4
M  ZZC  28 h10
M  ZZC  29 c5
M  ZZC  30 h9
M  ZZC  31 c6
M  ZZC  32 c16
M  ZZC  33 o3
M  ZZC  34 n2
M  ZZC  35 h1
M  ZZC  36 h2
M  ZZM   1 5
M  ZZI   1 1
M  ZZM   2 37
M  ZZI   2 125
M  ZZM   3 37
M  ZZI   3 125
M  ZZM   4 5
M  ZZI   4 1
M  ZZM   5 37
M  ZZI   5 125
M  ZZM   6 5
M  ZZI   6 1
M  ZZM   7 37
M  ZZI   7 125
M  ZZM   8 5
M  ZZI   8 1
M  ZZM   9 64
M  ZZI   9 105
M  ZZM  10 63
M  ZZI  10 104
M  ZZM  11 44
M  ZZI  11 248
M  ZZM  12 63
M  ZZI  12 104
M  ZZM  13 66
M  ZZI  13 222
M  ZZM  14 1
M  ZZI  14 112
M  ZZM  15 5
M  ZZI  15 1
M  ZZM  16 5
M  ZZI  16 1
M  ZZM  17 6
M  ZZI  17 59
M  ZZM  18 37
M  ZZI  18 124
M  ZZM  19 37
M  ZZI  19 124
M  ZZM  20 6
M  ZZI  20 59
M  ZZM  21 1
M  ZZI  21 111
M  ZZM  22 5
M  ZZI  22 1
M  ZZM  23 5
M  ZZI  23 1
M  ZZM  24 5
M  ZZI  24 1
M  ZZM  25 37
M  ZZI  25 125
M  ZZM  26 5
M  ZZI  26 1
M  ZZM  27 37
M  ZZI  27 125
M  ZZM  28 5
M  ZZI  28 1
M  ZZM  29 37
M  ZZI  29 125
M  ZZM  30 5
M  ZZI  30 1
M  ZZM  31 37
M  ZZI  31 124
M  ZZM  32 3
M  ZZI  32 121
M  ZZM  33 7
M  ZZI  33 81
M  ZZM  34 10
M  ZZI  34 212
M  ZZM  35 28
M  ZZI  35 11
M  ZZM  36 28
M  ZZI  36 11
M  END
> <NAME>
Z26326084

> <Score>
-27.22272

> <Natom>
36

> <Nflex>
2

> <Hbond>
-4.318603

> <Hphob>
-6.391629

> <VwInt>
-27.183983

> <Eintl>
6.76766

> <Dsolv>
12.884004

> <SolEl>
6.525329

> <mfScore>
-93.872837

> <RecConf>
1

> <molLogP>
2.553111

$$$$
Z240974220
  MOLSOFT 11211612053D

 36 38  0  0  1  0  0  0  0  0999 V2000
  -34.9431    1.6797   68.6515 F   0  0  0
  -35.1943    2.9361   68.2517 C   0  0  0
  -35.1783    3.2392   66.9096 C   0  0  0
  -34.9724    2.4615   66.1826 H   0  0  0
  -35.4062    4.5382   66.5044 C   0  0  0
  -35.3673    4.7742   65.4460 H   0  0  0
  -35.6430    5.5419   67.4376 C   0  0  0
  -35.6794    5.2064   68.7864 C   0  0  0
  -35.8571    5.9681   69.5400 H   0  0  0
  -35.4530    3.9063   69.1924 C   0  0  0
  -35.4632    3.6467   70.2455 H   0  0  0
  -35.7404    6.9875   67.0161 C   0  0  2
  -36.2068    7.5843   67.8078 H   0  0  0
  -36.5524    7.0997   65.8420 O   0  0  0
  -37.3663    7.5772   66.0937 H   0  0  0
  -34.3170    7.4722   66.7201 C   0  0  0
  -33.9575    7.0850   65.7611 H   0  0  0
  -33.6171    7.1234   67.4871 H   0  0  0
  -34.1688    8.9254   66.6884 N   0  0  0
  -33.9548    9.7207   67.7866 C   0  0  0
  -33.9952    9.4738   69.1479 C   0  0  0
  -34.2539    8.5032   69.5588 H   0  0  0
  -33.6842   10.5355   69.9738 C   0  0  0
  -33.7009   10.3927   71.0498 H   0  0  0
  -33.3450   11.7717   69.4616 C   0  0  0
  -33.0993   12.5824   70.1401 H   0  0  0
  -33.3073   11.9976   68.1008 C   0  0  0
  -33.0326   12.9664   67.7037 H   0  0  0
  -33.6230   10.9490   67.2543 C   0  0  0
  -33.6556   10.9196   65.8824 N   0  0  0
  -34.0491    9.7022   65.5596 C   0  0  0
  -34.3566    9.2165   64.1889 C   0  0  0
  -34.5748   10.0657   63.5420 H   0  0  0
  -35.2187    8.5470   64.1765 H   0  0  0
  -33.2222    8.5170   63.6863 O   0  0  0
  -33.4274    8.2696   62.7658 H   0  0  0
  2  1  1
  2  3  1
  2 10  2
  3  4  1
  3  5  2
  5  6  1
  5  7  1
  7  8  2
 12  7  1
  8  9  1
  8 10  1
 10 11  1
 12 13  1
 12 14  1
 12 16  1
 14 15  1
 16 17  1
 16 18  1
 16 19  1
 19 20  1
 19 31  1
 20 21  1
 20 29  2
 21 22  1
 21 23  2
 23 24  1
 23 25  1
 25 26  1
 25 27  2
 27 28  1
 27 29  1
 29 30  1
 30 31  2
 31 32  1
 32 33  1
 32 34  1
 32 35  1
 35 36  1
M  ZZC   1 f1
M  ZZC   2 c13
M  ZZC   3 c12
M  ZZC   4 h7
M  ZZC   5 c11
M  ZZC   6 h8
M  ZZC   7 c10
M  ZZC   8 c15
M  ZZC   9 h5
M  ZZC  10 c14
M  ZZC  11 h6
M  ZZC  12 c9
M  ZZC  13 h15
M  ZZC  14 o1
M  ZZC  15 h4
M  ZZC  16 c8
M  ZZC  17 h10
M  ZZC  18 h9
M  ZZC  19 n2
M  ZZC  20 c4
M  ZZC  21 c3
M  ZZC  22 h12
M  ZZC  23 c2
M  ZZC  24 h13
M  ZZC  25 c1
M  ZZC  26 h14
M  ZZC  27 c6
M  ZZC  28 h11
M  ZZC  29 c5
M  ZZC  30 n1
M  ZZC  31 c7
M  ZZC  32 c16
M  ZZC  33 h2
M  ZZC  34 h3
M  ZZC  35 o2
M  ZZC  36 h1
M  ZZM   1 11
M  ZZI   1 90
M  ZZM   2 37
M  ZZI   2 124
M  ZZM   3 37
M  ZZI   3 125
M  ZZM   4 5
M  ZZI   4 1
M  ZZM   5 37
M  ZZI   5 125
M  ZZM   6 5
M  ZZI   6 1
M  ZZM   7 37
M  ZZI   7 124
M  ZZM   8 37
M  ZZI   8 125
M  ZZM   9 5
M  ZZI   9 1
M  ZZM  10 37
M  ZZI  10 125
M  ZZM  11 5
M  ZZI  11 1
M  ZZM  12 1
M  ZZI  12 113
M  ZZM  13 5
M  ZZI  13 1
M  ZZM  14 6
M  ZZI  14 60
M  ZZM  15 21
M  ZZI  15 20
M  ZZM  16 1
M  ZZI  16 112
M  ZZM  17 5
M  ZZI  17 1
M  ZZM  18 5
M  ZZI  18 1
M  ZZM  19 39
M  ZZI  19 215
M  ZZM  20 63
M  ZZI  20 104
M  ZZM  21 37
M  ZZI  21 125
M  ZZM  22 5
M  ZZI  22 1
M  ZZM  23 37
M  ZZI  23 125
M  ZZM  24 5
M  ZZI  24 1
M  ZZM  25 37
M  ZZI  25 125
M  ZZM  26 5
M  ZZI  26 1
M  ZZM  27 37
M  ZZI  27 125
M  ZZM  28 5
M  ZZI  28 1
M  ZZM  29 64
M  ZZI  29 105
M  ZZM  30 66
M  ZZI  30 222
M  ZZM  31 63
M  ZZI  31 104
M  ZZM  32 1
M  ZZI  32 112
M  ZZM  33 5
M  ZZI  33 1
M  ZZM  34 5
M  ZZI  34 1
M  ZZM  35 6
M  ZZI  35 60
M  ZZM  36 21
M  ZZI  36 20
M  END
> <NAME>
Z240974220

> <Score>
-25.73159

> <Natom>
36

> <Nflex>
6

> <Hbond>
-6.484797

> <Hphob>
-5.605555

> <VwInt>
-23.811347

> <Eintl>
4.353146

> <Dsolv>
12.528028

> <SolEl>
7.948475

> <mfScore>
-89.232723

> <RecConf>
1

> <molLogP>
1.906195

$$$$
Z26326009
  MOLSOFT 11211612053D

 38 39  0  0  0  0  0  0  0  0999 V2000
  -35.3185    6.1685   70.3202 Br  0  0  0
  -35.2017    5.0627   68.7778 C   0  0  0
  -35.4369    5.5960   67.5168 C   0  0  0
  -35.3418    4.7580   66.4141 C   0  0  0
  -35.4937    5.1268   65.4073 H   0  0  0
  -35.0165    3.4257   66.5776 C   0  0  0
  -34.9325    2.7802   65.7095 H   0  0  0
  -34.7921    2.9080   67.8354 C   0  0  0
  -34.5416    1.8581   67.9526 H   0  0  0
  -34.8877    3.7260   68.9407 C   0  0  0
  -34.7120    3.3125   69.9289 H   0  0  0
  -35.7341    6.9780   67.4090 N   0  0  0
  -35.6694    7.5093   68.2710 H   0  0  0
  -36.1185    7.6348   66.2478 C   0  0  0
  -36.3825    7.0930   65.1834 O   0  0  0
  -36.1768    9.1443   66.4093 C   0  0  0
  -37.1476    9.4764   66.0280 H   0  0  0
  -36.1410    9.4281   67.4657 H   0  0  0
  -35.1516    9.8292   65.6542 O   0  0  0
  -33.8948    9.6133   66.2282 C   0  0  0
  -33.4945   10.2999   67.3734 C   0  0  0
  -34.3643   11.2593   67.8973 O   0  0  0
  -33.7233   12.1144   68.8512 C   0  0  0
  -33.5248   11.5842   69.7881 H   0  0  0
  -34.4056   12.9301   69.0818 H   0  0  0
  -32.8156   12.5659   68.4368 H   0  0  0
  -32.2573   10.0217   67.9453 C   0  0  0
  -31.9169   10.5025   68.8548 H   0  0  0
  -31.4088    9.1127   67.3543 C   0  0  0
  -30.4434    8.9016   67.8038 H   0  0  0
  -31.7639    8.4981   66.1762 C   0  0  0
  -31.0537    7.8350   65.6971 H   0  0  0
  -32.9999    8.7487   65.6045 C   0  0  0
  -33.3022    8.0685   64.3224 C   0  0  0
  -32.7078    7.0506   64.0161 O   0  0  0
  -34.2305    8.6555   63.5147 N   0  0  0
  -34.4096    8.2529   62.6012 H   0  0  0
  -34.7541    9.4819   63.7846 H   0  0  0
  2  1  1
  2  3  1
  2 10  2
  3  4  2
  3 12  1
  4  5  1
  4  6  1
  6  7  1
  6  8  2
  8  9  1
  8 10  1
 10 11  1
 12 13  1
 12 14  1
 14 15  2
 14 16  1
 16 17  1
 16 18  1
 16 19  1
 19 20  1
 20 21  2
 20 33  1
 21 22  1
 21 27  1
 22 23  1
 23 24  1
 23 25  1
 23 26  1
 27 28  1
 27 29  2
 29 30  1
 29 31  1
 31 32  1
 31 33  2
 33 34  1
 34 35  2
 34 36  1
 36 37  1
 36 38  1
M  ZZC   1 &Br1
M  ZZC   2 c15
M  ZZC   3 c10
M  ZZC   4 c11
M  ZZC   5 h6
M  ZZC   6 c12
M  ZZC   7 h5
M  ZZC   8 c13
M  ZZC   9 h4
M  ZZC  10 c14
M  ZZC  11 h3
M  ZZC  12 n1
M  ZZC  13 h7
M  ZZC  14 c9
M  ZZC  15 o3
M  ZZC  16 c8
M  ZZC  17 h8
M  ZZC  18 h9
M  ZZC  19 o2
M  ZZC  20 c7
M  ZZC  21 c2
M  ZZC  22 o1
M  ZZC  23 c1
M  ZZC  24 h13
M  ZZC  25 h14
M  ZZC  26 h15
M  ZZC  27 c3
M  ZZC  28 h12
M  ZZC  29 c4
M  ZZC  30 h11
M  ZZC  31 c5
M  ZZC  32 h10
M  ZZC  33 c6
M  ZZC  34 c16
M  ZZC  35 o4
M  ZZC  36 n2
M  ZZC  37 h1
M  ZZC  38 h2
M  ZZM   1 13
M  ZZI   1 95
M  ZZM   2 37
M  ZZI   2 124
M  ZZM   3 37
M  ZZI   3 124
M  ZZM   4 37
M  ZZI   4 125
M  ZZM   5 5
M  ZZI   5 1
M  ZZM   6 37
M  ZZI   6 125
M  ZZM   7 5
M  ZZI   7 1
M  ZZM   8 37
M  ZZI   8 125
M  ZZM   9 5
M  ZZI   9 1
M  ZZM  10 37
M  ZZI  10 125
M  ZZM  11 5
M  ZZI  11 1
M  ZZM  12 10
M  ZZI  12 191
M  ZZM  13 28
M  ZZI  13 11
M  ZZM  14 3
M  ZZI  14 121
M  ZZM  15 7
M  ZZI  15 81
M  ZZM  16 1
M  ZZI  16 112
M  ZZM  17 5
M  ZZI  17 1
M  ZZM  18 5
M  ZZI  18 1
M  ZZM  19 6
M  ZZI  19 59
M  ZZM  20 37
M  ZZI  20 124
M  ZZM  21 37
M  ZZI  21 124
M  ZZM  22 6
M  ZZI  22 59
M  ZZM  23 1
M  ZZI  23 111
M  ZZM  24 5
M  ZZI  24 1
M  ZZM  25 5
M  ZZI  25 1
M  ZZM  26 5
M  ZZI  26 1
M  ZZM  27 37
M  ZZI  27 125
M  ZZM  28 5
M  ZZI  28 1
M  ZZM  29 37
M  ZZI  29 125
M  ZZM  30 5
M  ZZI  30 1
M  ZZM  31 37
M  ZZI  31 125
M  ZZM  32 5
M  ZZI  32 1
M  ZZM  33 37
M  ZZI  33 124
M  ZZM  34 3
M  ZZI  34 121
M  ZZM  35 7
M  ZZI  35 81
M  ZZM  36 10
M  ZZI  36 212
M  ZZM  37 28
M  ZZI  37 11
M  ZZM  38 28
M  ZZI  38 11
M  END
> <NAME>
Z26326009

> <Score>
-30.1231

> <Natom>
38

> <Nflex>
2

> <Hbond>
-3.775855

> <Hphob>
-6.534036

> <VwInt>
-29.770502

> <Eintl>
4.170082

> <Dsolv>
11.760169

> <SolEl>
5.390895

> <mfScore>
-85.919535

> <RecConf>
1

> <molLogP>
2.223726

$$$$
Z26325942
  MOLSOFT 11211612053D

 38 39  0  0  0  0  0  0  0  0999 V2000
  -34.6560    3.0872   70.4954 Cl  0  0  0
  -34.9169    3.7355   68.9168 C   0  0  0
  -34.8215    2.9074   67.8182 C   0  0  0
  -34.5807    1.8551   67.9337 H   0  0  0
  -35.0365    3.4270   66.5598 C   0  0  0
  -34.9543    2.7835   65.6901 H   0  0  0
  -35.3527    4.7621   66.4026 C   0  0  0
  -35.5001    5.1358   65.3970 H   0  0  0
  -35.4457    5.5983   67.5072 C   0  0  0
  -35.2180    5.0757   68.7690 C   0  0  0
  -35.2830    5.7113   69.6462 H   0  0  0
  -35.7361    6.9805   67.4088 N   0  0  0
  -35.6674    7.5139   68.2681 H   0  0  0
  -36.1149    7.6419   66.2480 C   0  0  0
  -36.3803    7.1023   65.1827 O   0  0  0
  -36.1679    9.1516   66.4108 C   0  0  0
  -37.1393    9.4879   66.0347 H   0  0  0
  -36.1269    9.4355   67.4668 H   0  0  0
  -35.1430    9.8292   65.6495 O   0  0  0
  -33.8854    9.6196   66.2241 C   0  0  0
  -33.4883   10.3022   67.3728 C   0  0  0
  -34.3612   11.2573   67.8994 O   0  0  0
  -33.7162   12.1240   68.8400 C   0  0  0
  -33.5104   11.6047   69.7813 H   0  0  0
  -34.3974   12.9415   69.0670 H   0  0  0
  -32.8098   12.5693   68.4160 H   0  0  0
  -32.2502   10.0266   67.9439 C   0  0  0
  -31.9125   10.5052   68.8556 H   0  0  0
  -31.3976    9.1232   67.3500 C   0  0  0
  -30.4322    8.9124   67.7996 H   0  0  0
  -31.7493    8.5120   66.1690 C   0  0  0
  -31.0364    7.8535   65.6871 H   0  0  0
  -32.9866    8.7598   65.5983 C   0  0  0
  -33.2865    8.0782   64.3164 C   0  0  0
  -32.6860    7.0640   64.0096 O   0  0  0
  -34.2233    8.6558   63.5118 N   0  0  0
  -34.4032    8.2496   62.6002 H   0  0  0
  -34.7535    9.4775   63.7829 H   0  0  0
  2  1  1
  2  3  1
  2 10  2
  3  4  1
  3  5  2
  5  6  1
  5  7  1
  7  8  1
  7  9  2
  9 10  1
  9 12  1
 10 11  1
 12 13  1
 12 14  1
 14 15  2
 14 16  1
 16 17  1
 16 18  1
 16 19  1
 19 20  1
 20 21  2
 20 33  1
 21 22  1
 21 27  1
 22 23  1
 23 24  1
 23 25  1
 23 26  1
 27 28  1
 27 29  2
 29 30  1
 29 31  1
 31 32  1
 31 33  2
 33 34  1
 34 35  2
 34 36  1
 36 37  1
 36 38  1
M  ZZC   1 &Cl1
M  ZZC   2 c14
M  ZZC   3 c13
M  ZZC   4 h4
M  ZZC   5 c12
M  ZZC   6 h5
M  ZZC   7 c11
M  ZZC   8 h6
M  ZZC   9 c10
M  ZZC  10 c15
M  ZZC  11 h3
M  ZZC  12 n1
M  ZZC  13 h7
M  ZZC  14 c9
M  ZZC  15 o3
M  ZZC  16 c8
M  ZZC  17 h8
M  ZZC  18 h9
M  ZZC  19 o2
M  ZZC  20 c7
M  ZZC  21 c2
M  ZZC  22 o1
M  ZZC  23 c1
M  ZZC  24 h13
M  ZZC  25 h14
M  ZZC  26 h15
M  ZZC  27 c3
M  ZZC  28 h12
M  ZZC  29 c4
M  ZZC  30 h11
M  ZZC  31 c5
M  ZZC  32 h10
M  ZZC  33 c6
M  ZZC  34 c16
M  ZZC  35 o4
M  ZZC  36 n2
M  ZZC  37 h1
M  ZZC  38 h2
M  ZZM   1 12
M  ZZI   1 92
M  ZZM   2 37
M  ZZI   2 124
M  ZZM   3 37
M  ZZI   3 125
M  ZZM   4 5
M  ZZI   4 1
M  ZZM   5 37
M  ZZI   5 125
M  ZZM   6 5
M  ZZI   6 1
M  ZZM   7 37
M  ZZI   7 125
M  ZZM   8 5
M  ZZI   8 1
M  ZZM   9 37
M  ZZI   9 124
M  ZZM  10 37
M  ZZI  10 125
M  ZZM  11 5
M  ZZI  11 1
M  ZZM  12 10
M  ZZI  12 191
M  ZZM  13 28
M  ZZI  13 11
M  ZZM  14 3
M  ZZI  14 121
M  ZZM  15 7
M  ZZI  15 81
M  ZZM  16 1
M  ZZI  16 112
M  ZZM  17 5
M  ZZI  17 1
M  ZZM  18 5
M  ZZI  18 1
M  ZZM  19 6
M  ZZI  19 59
M  ZZM  20 37
M  ZZI  20 124
M  ZZM  21 37
M  ZZI  21 124
M  ZZM  22 6
M  ZZI  22 59
M  ZZM  23 1
M  ZZI  23 111
M  ZZM  24 5
M  ZZI  24 1
M  ZZM  25 5
M  ZZI  25 1
M  ZZM  26 5
M  ZZI  26 1
M  ZZM  27 37
M  ZZI  27 125
M  ZZM  28 5
M  ZZI  28 1
M  ZZM  29 37
M  ZZI  29 125
M  ZZM  30 5
M  ZZI  30 1
M  ZZM  31 37
M  ZZI  31 125
M  ZZM  32 5
M  ZZI  32 1
M  ZZM  33 37
M  ZZI  33 124
M  ZZM  34 3
M  ZZI  34 121
M  ZZM  35 7
M  ZZI  35 81
M  ZZM  36 10
M  ZZI  36 212
M  ZZM  37 28
M  ZZI  37 11
M  ZZM  38 28
M  ZZI  38 11
M  END
> <NAME>
Z26325942

> <Score>
-28.948384

> <Natom>
38

> <Nflex>
2

> <Hbond>
-3.751269

> <Hphob>
-6.407679

> <VwInt>
-29.755515

> <Eintl>
5.982696

> <Dsolv>
12.554871

> <SolEl>
6.022473

> <mfScore>
-87.501728

> <RecConf>
1

> <molLogP>
2.207352

$$$$
Z26326250
  MOLSOFT 11211612053D

 38 39  0  0  0  0  0  0  0  0999 V2000
  -36.4158    5.5761   70.6564 Cl  0  0  0
  -35.8241    4.7171   69.2765 C   0  0  0
  -35.8567    5.2975   68.0173 C   0  0  0
  -35.4057    4.5662   66.9206 C   0  0  0
  -35.4469    4.9541   65.9089 H   0  0  0
  -34.8974    3.2956   67.1015 C   0  0  0
  -34.5443    2.7285   66.2456 H   0  0  0
  -34.8412    2.7378   68.3618 C   0  0  0
  -34.4403    1.7373   68.4928 H   0  0  0
  -35.3099    3.4449   69.4502 C   0  0  0
  -35.2754    2.9946   70.4375 H   0  0  0
  -36.3598    6.6023   67.9186 O   0  0  0
  -35.9119    7.2482   66.7207 C   0  0  0
  -34.8675    6.9822   66.5393 H   0  0  0
  -36.5190    6.9074   65.8775 H   0  0  0
  -36.0405    8.7634   66.8456 C   0  0  0
  -35.7137    9.1046   67.8321 H   0  0  0
  -37.0945    9.0405   66.7705 H   0  0  0
  -35.3515    9.4527   65.7793 O   0  0  0
  -33.9706    9.3623   65.9672 C   0  0  0
  -33.3455   10.0559   67.0018 C   0  0  0
  -34.1357   10.9208   67.7694 O   0  0  0
  -33.3834   11.8636   68.5406 C   0  0  0
  -34.0811   12.6063   68.9345 H   0  0  0
  -32.9031   11.3767   69.3952 H   0  0  0
  -32.6552   12.3951   67.9188 H   0  0  0
  -31.9878    9.8622   67.2263 C   0  0  0
  -31.4725   10.3358   68.0541 H   0  0  0
  -31.2611    9.0331   66.3943 C   0  0  0
  -30.2064    8.8601   66.5862 H   0  0  0
  -31.8516    8.4414   65.2997 C   0  0  0
  -31.2412    7.8230   64.6499 H   0  0  0
  -33.2088    8.6124   65.0719 C   0  0  0
  -33.8369    7.9708   63.8864 C   0  0  0
  -34.9909    7.5731   63.8952 O   0  0  0
  -33.0402    7.8700   62.7822 N   0  0  0
  -33.4529    7.5211   61.9278 H   0  0  0
  -32.0817    8.1909   62.7244 H   0  0  0
  2  1  1
  2  3  1
  2 10  2
  3  4  2
  3 12  1
  4  5  1
  4  6  1
  6  7  1
  6  8  2
  8  9  1
  8 10  1
 10 11  1
 12 13  1
 13 14  1
 13 15  1
 13 16  1
 16 17  1
 16 18  1
 16 19  1
 19 20  1
 20 21  2
 20 33  1
 21 22  1
 21 27  1
 22 23  1
 23 24  1
 23 25  1
 23 26  1
 27 28  1
 27 29  2
 29 30  1
 29 31  1
 31 32  1
 31 33  2
 33 34  1
 34 35  2
 34 36  1
 36 37  1
 36 38  1
M  ZZC   1 &Cl1
M  ZZC   2 c15
M  ZZC   3 c10
M  ZZC   4 c11
M  ZZC   5 h6
M  ZZC   6 c12
M  ZZC   7 h5
M  ZZC   8 c13
M  ZZC   9 h4
M  ZZC  10 c14
M  ZZC  11 h3
M  ZZC  12 o3
M  ZZC  13 c9
M  ZZC  14 h7
M  ZZC  15 h8
M  ZZC  16 c8
M  ZZC  17 h10
M  ZZC  18 h9
M  ZZC  19 o2
M  ZZC  20 c7
M  ZZC  21 c2
M  ZZC  22 o1
M  ZZC  23 c1
M  ZZC  24 h14
M  ZZC  25 h15
M  ZZC  26 h16
M  ZZC  27 c3
M  ZZC  28 h13
M  ZZC  29 c4
M  ZZC  30 h12
M  ZZC  31 c5
M  ZZC  32 h11
M  ZZC  33 c6
M  ZZC  34 c16
M  ZZC  35 o4
M  ZZC  36 n1
M  ZZC  37 h1
M  ZZC  38 h2
M  ZZM   1 12
M  ZZI   1 92
M  ZZM   2 37
M  ZZI   2 124
M  ZZM   3 37
M  ZZI   3 124
M  ZZM   4 37
M  ZZI   4 125
M  ZZM   5 5
M  ZZI   5 1
M  ZZM   6 37
M  ZZI   6 125
M  ZZM   7 5
M  ZZI   7 1
M  ZZM   8 37
M  ZZI   8 125
M  ZZM   9 5
M  ZZI   9 1
M  ZZM  10 37
M  ZZI  10 125
M  ZZM  11 5
M  ZZI  11 1
M  ZZM  12 6
M  ZZI  12 59
M  ZZM  13 1
M  ZZI  13 112
M  ZZM  14 5
M  ZZI  14 1
M  ZZM  15 5
M  ZZI  15 1
M  ZZM  16 1
M  ZZI  16 112
M  ZZM  17 5
M  ZZI  17 1
M  ZZM  18 5
M  ZZI  18 1
M  ZZM  19 6
M  ZZI  19 59
M  ZZM  20 37
M  ZZI  20 124
M  ZZM  21 37
M  ZZI  21 124
M  ZZM  22 6
M  ZZI  22 59
M  ZZM  23 1
M  ZZI  23 111
M  ZZM  24 5
M  ZZI  24 1
M  ZZM  25 5
M  ZZI  25 1
M  ZZM  26 5
M  ZZI  26 1
M  ZZM  27 37
M  ZZI  27 125
M  ZZM  28 5
M  ZZI  28 1
M  ZZM  29 37
M  ZZI  29 125
M  ZZM  30 5
M  ZZI  30 1
M  ZZM  31 37
M  ZZI  31 125
M  ZZM  32 5
M  ZZI  32 1
M  ZZM  33 37
M  ZZI  33 124
M  ZZM  34 3
M  ZZI  34 121
M  ZZM  35 7
M  ZZI  35 81
M  ZZM  36 10
M  ZZI  36 212
M  ZZM  37 28
M  ZZI  37 11
M  ZZM  38 28
M  ZZI  38 11
M  END
> <NAME>
Z26326250

> <Score>
-28.876741

> <Natom>
38

> <Nflex>
3

> <Hbond>
-3.830165

> <Hphob>
-6.698507

> <VwInt>
-29.749158

> <Eintl>
9.172054

> <Dsolv>
11.642312

> <SolEl>
6.846969

> <mfScore>
-99.029586

> <RecConf>
1

> <molLogP>
2.929874

$$$$
Z25218171
  MOLSOFT 11211612053D

 38 40  0  0  0  0  0  0  0  0999 V2000
  -36.2398    5.8265   65.1114 O   0  0  0
  -36.2502    5.9518   66.3285 C   0  0  0
  -36.8846    7.1523   66.9861 C   0  0  0
  -37.3876    7.7553   66.2249 H   0  0  0
  -37.6626    6.8149   67.6773 H   0  0  0
  -35.9349    7.9568   67.6957 O   0  0  0
  -35.3237    8.8904   66.9083 C   0  0  0
  -35.4353    9.0155   65.6959 O   0  0  0
  -34.4905    9.7662   67.7635 C   0  0  0
  -34.5551    9.6273   69.1467 C   0  0  0
  -35.1961    8.8892   69.6197 H   0  0  0
  -33.7883   10.4454   69.9511 C   0  0  0
  -33.8224   10.3418   71.0311 H   0  0  0
  -32.9677   11.3887   69.3747 C   0  0  0
  -32.1940   12.1677   70.2076 O   0  0  0
  -31.5639   12.6418   69.6364 H   0  0  0
  -32.8947   11.5502   68.0048 C   0  0  0
  -32.2446   12.2979   67.5622 H   0  0  0
  -33.6541   10.7314   67.1973 C   0  0  0
  -33.5172   10.9231   65.8296 O   0  0  0
  -34.0801   10.2805   65.3581 H   0  0  0
  -35.6567    4.8783   67.1744 C   0  0  0
  -35.7107    4.9030   68.5628 C   0  0  0
  -36.1752    5.7283   69.0922 H   0  0  0
  -35.1791    3.8488   69.2931 C   0  0  0
  -35.2387    3.8515   70.6790 C   0  0  0
  -35.6975    4.6789   71.2122 H   0  0  0
  -34.7187    2.7960   71.4011 C   0  0  0
  -34.7720    2.8026   72.4852 H   0  0  0
  -34.1357    1.7306   70.7481 C   0  0  0
  -33.7311    0.8999   71.3179 H   0  0  0
  -34.0701    1.7191   69.3700 C   0  0  0
  -33.6120    0.8728   68.8672 H   0  0  0
  -34.5896    2.7756   68.6387 C   0  0  0
  -34.5295    2.7643   67.2565 C   0  0  0
  -34.0717    1.9344   66.7282 H   0  0  0
  -35.0637    3.8054   66.5306 C   0  0  0
  -35.0184    3.7607   65.4503 H   0  0  0
  2  1  2
  2  3  1
  2 22  1
  3  4  1
  3  5  1
  3  6  1
  6  7  1
  7  8  2
  7  9  1
  9 10  2
  9 19  1
 10 11  1
 10 12  1
 12 13  1
 12 14  2
 14 15  1
 14 17  1
 15 16  1
 17 18  1
 17 19  2
 19 20  1
 20 21  1
 22 23  1
 22 37  2
 23 24  1
 23 25  2
 25 26  1
 25 34  1
 26 27  1
 26 28  2
 28 29  1
 28 30  1
 30 31  1
 30 32  2
 32 33  1
 32 34  1
 34 35  2
 35 36  1
 35 37  1
 37 38  1
M  ZZC   1 o1
M  ZZC   2 c11
M  ZZC   3 c12
M  ZZC   4 h6
M  ZZC   5 h7
M  ZZC   6 o2
M  ZZC   7 c13
M  ZZC   8 o3
M  ZZC   9 c14
M  ZZC  10 c15
M  ZZC  11 h5
M  ZZC  12 c16
M  ZZC  13 h4
M  ZZC  14 c17
M  ZZC  15 o5
M  ZZC  16 h1
M  ZZC  17 c18
M  ZZC  18 h3
M  ZZC  19 c19
M  ZZC  20 o4
M  ZZC  21 h2
M  ZZC  22 c6
M  ZZC  23 c5
M  ZZC  24 h11
M  ZZC  25 c4
M  ZZC  26 c3
M  ZZC  27 h12
M  ZZC  28 c2
M  ZZC  29 h13
M  ZZC  30 c1
M  ZZC  31 h14
M  ZZC  32 c10
M  ZZC  33 h8
M  ZZC  34 c9
M  ZZC  35 c8
M  ZZC  36 h9
M  ZZC  37 c7
M  ZZC  38 h10
M  ZZM   1 7
M  ZZI   1 80
M  ZZM   2 3
M  ZZI   2 122
M  ZZM   3 1
M  ZZI   3 112
M  ZZM   4 5
M  ZZI   4 1
M  ZZM   5 5
M  ZZI   5 1
M  ZZM   6 6
M  ZZI   6 61
M  ZZM   7 3
M  ZZI   7 123
M  ZZM   8 7
M  ZZI   8 82
M  ZZM   9 37
M  ZZI   9 124
M  ZZM  10 37
M  ZZI  10 125
M  ZZM  11 5
M  ZZI  11 1
M  ZZM  12 37
M  ZZI  12 125
M  ZZM  13 5
M  ZZI  13 1
M  ZZM  14 37
M  ZZI  14 124
M  ZZM  15 6
M  ZZI  15 62
M  ZZM  16 29
M  ZZI  16 27
M  ZZM  17 37
M  ZZI  17 125
M  ZZM  18 5
M  ZZI  18 1
M  ZZM  19 37
M  ZZI  19 124
M  ZZM  20 6
M  ZZI  20 62
M  ZZM  21 29
M  ZZI  21 27
M  ZZM  22 37
M  ZZI  22 124
M  ZZM  23 37
M  ZZI  23 125
M  ZZM  24 5
M  ZZI  24 1
M  ZZM  25 37
M  ZZI  25 124
M  ZZM  26 37
M  ZZI  26 125
M  ZZM  27 5
M  ZZI  27 1
M  ZZM  28 37
M  ZZI  28 125
M  ZZM  29 5
M  ZZI  29 1
M  ZZM  30 37
M  ZZI  30 125
M  ZZM  31 5
M  ZZI  31 1
M  ZZM  32 37
M  ZZI  32 125
M  ZZM  33 5
M  ZZI  33 1
M  ZZM  34 37
M  ZZI  34 124
M  ZZM  35 37
M  ZZI  35 125
M  ZZM  36 5
M  ZZI  36 1
M  ZZM  37 37
M  ZZI  37 125
M  ZZM  38 5
M  ZZI  38 1
M  END
> <NAME>
Z25218171

> <Score>
-28.316319

> <Natom>
38

> <Nflex>
2

> <Hbond>
-4.022528

> <Hphob>
-5.4346

> <VwInt>
-25.929645

> <Eintl>
4.459699

> <Dsolv>
11.244293

> <SolEl>
2.724673

> <mfScore>
-73.531437

> <RecConf>
1

> <molLogP>
3.686732

$$$$
Z750606126
  MOLSOFT 11211612053D

 38 39  0  0  0  0  0  0  0  0999 V2000
  -36.4588    9.2630   65.3582 Cl  0  0  0
  -36.0212    7.7947   66.0910 C   0  0  0
  -35.2729    7.6416   67.2353 C   0  0  0
  -34.6124    8.6389   68.0169 C   0  0  0
  -35.1349    9.1420   68.9993 O   0  0  0
  -33.3409    8.9958   67.5735 N   0  0  0
  -32.6606   10.1060   68.2485 C   0  0  0
  -31.5846   10.0657   68.0525 H   0  0  0
  -32.8120   10.0108   69.3288 H   0  0  0
  -33.2097   11.4451   67.7689 C   0  0  0
  -33.1586   11.8210   66.6078 O   0  0  0
  -33.8216   12.1817   68.7475 N   0  0  0
  -34.2975   13.0397   68.4960 H   0  0  0
  -33.8732   11.8884   69.7161 H   0  0  0
  -32.6528    8.3354   66.4589 C   0  0  0
  -33.1293    7.3768   66.2601 H   0  0  0
  -31.6319    8.1074   66.7814 H   0  0  0
  -32.6191    9.1766   65.1874 C   0  0  0
  -33.5777    9.6756   65.0236 H   0  0  0
  -31.8837    9.9694   65.3314 H   0  0  0
  -32.2441    8.3791   63.9430 C   0  0  0
  -31.9841    9.0766   63.1409 H   0  0  0
  -31.3533    7.7719   64.1308 H   0  0  0
  -33.3817    7.4956   63.4569 C   0  0  0
  -33.6030    6.6936   64.1642 H   0  0  0
  -33.1179    7.0331   62.5051 H   0  0  0
  -34.2940    8.0757   63.2945 H   0  0  0
  -35.3008    6.2967   67.4917 N   0  0  0
  -35.8580    5.6921   66.3957 C   0  0  0
  -36.3329    6.5781   65.5446 N   0  0  0
  -35.8382    4.2823   66.3655 C   0  0  0
  -36.2057    3.7704   65.4870 H   0  0  0
  -35.3634    3.5985   67.4153 C   0  0  0
  -35.3383    2.5135   67.4025 H   0  0  0
  -34.8844    4.2734   68.5890 C   0  0  0
  -34.5516    3.6874   69.4391 H   0  0  0
  -34.8528    5.6078   68.5927 C   0  0  0
  -34.4985    6.1838   69.4402 H   0  0  0
  2  1  1
  2  3  2
  2 30  1
  3  4  1
  3 28  1
  4  5  2
  4  6  1
  6  7  1
  6 15  1
  7  8  1
  7  9  1
  7 10  1
 10 11  2
 10 12  1
 12 13  1
 12 14  1
 15 16  1
 15 17  1
 15 18  1
 18 19  1
 18 20  1
 18 21  1
 21 22  1
 21 23  1
 21 24  1
 24 25  1
 24 26  1
 24 27  1
 28 29  1
 28 37  1
 29 30  2
 29 31  1
 31 32  1
 31 33  2
 33 34  1
 33 35  1
 35 36  1
 35 37  2
 37 38  1
M  ZZC   1 &Cl1
M  ZZC   2 c9
M  ZZC   3 c8
M  ZZC   4 c7
M  ZZC   5 o2
M  ZZC   6 n1
M  ZZC   7 c5
M  ZZC   8 h7
M  ZZC   9 h8
M  ZZC  10 c6
M  ZZC  11 o1
M  ZZC  12 n2
M  ZZC  13 h5
M  ZZC  14 h6
M  ZZC  15 c4
M  ZZC  16 h10
M  ZZC  17 h9
M  ZZC  18 c3
M  ZZC  19 h11
M  ZZC  20 h12
M  ZZC  21 c2
M  ZZC  22 h13
M  ZZC  23 h14
M  ZZC  24 c1
M  ZZC  25 h15
M  ZZC  26 h16
M  ZZC  27 h17
M  ZZC  28 n4
M  ZZC  29 c10
M  ZZC  30 n3
M  ZZC  31 c14
M  ZZC  32 h1
M  ZZC  33 c13
M  ZZC  34 h2
M  ZZC  35 c12
M  ZZC  36 h3
M  ZZC  37 c11
M  ZZC  38 h4
M  ZZM   1 12
M  ZZI   1 92
M  ZZM   2 64
M  ZZI   2 105
M  ZZM   3 63
M  ZZI   3 104
M  ZZM   4 3
M  ZZI   4 121
M  ZZM   5 7
M  ZZI   5 81
M  ZZM   6 10
M  ZZI   6 192
M  ZZM   7 1
M  ZZI   7 112
M  ZZM   8 5
M  ZZI   8 1
M  ZZM   9 5
M  ZZI   9 1
M  ZZM  10 3
M  ZZI  10 121
M  ZZM  11 7
M  ZZI  11 81
M  ZZM  12 10
M  ZZI  12 212
M  ZZM  13 28
M  ZZI  13 11
M  ZZM  14 28
M  ZZI  14 11
M  ZZM  15 1
M  ZZI  15 112
M  ZZM  16 5
M  ZZI  16 1
M  ZZM  17 5
M  ZZI  17 1
M  ZZM  18 1
M  ZZI  18 112
M  ZZM  19 5
M  ZZI  19 1
M  ZZM  20 5
M  ZZI  20 1
M  ZZM  21 1
M  ZZI  21 112
M  ZZM  22 5
M  ZZI  22 1
M  ZZM  23 5
M  ZZI  23 1
M  ZZM  24 1
M  ZZI  24 111
M  ZZM  25 5
M  ZZI  25 1
M  ZZM  26 5
M  ZZI  26 1
M  ZZM  27 5
M  ZZI  27 1
M  ZZM  28 39
M  ZZI  28 215
M  ZZM  29 63
M  ZZI  29 104
M  ZZM  30 66
M  ZZI  30 222
M  ZZM  31 2
M  ZZI  31 120
M  ZZM  32 5
M  ZZI  32 1
M  ZZM  33 2
M  ZZI  33 120
M  ZZM  34 5
M  ZZI  34 1
M  ZZM  35 2
M  ZZI  35 120
M  ZZM  36 5
M  ZZI  36 1
M  ZZM  37 2
M  ZZI  37 120
M  ZZM  38 5
M  ZZI  38 1
M  END
> <NAME>
Z750606126

> <Score>
-28.141064

> <Natom>
38

> <Nflex>
6

> <Hbond>
-5.174869

> <Hphob>
-6.092707

> <VwInt>
-25.833113

> <Eintl>
6.682957

> <Dsolv>
11.916038

> <SolEl>
3.529626

> <mfScore>
-79.199817

> <RecConf>
1

> <molLogP>
1.50663

$$$$
Z26326168
  MOLSOFT 11211612053D

 38 39  0  0  0  0  0  0  0  0999 V2000
  -36.2755    5.4651   70.3886 F   0  0  0
  -35.8315    4.7664   69.3302 C   0  0  0
  -35.8597    5.3308   68.0676 C   0  0  0
  -35.4197    4.5771   66.9820 C   0  0  0
  -35.4505    4.9524   65.9651 H   0  0  0
  -34.9340    3.2999   67.1848 C   0  0  0
  -34.5907    2.7131   66.3381 H   0  0  0
  -34.8877    2.7591   68.4542 C   0  0  0
  -34.5064    1.7531   68.6007 H   0  0  0
  -35.3425    3.4923   69.5313 C   0  0  0
  -35.3230    3.0723   70.5312 H   0  0  0
  -36.3454    6.6411   67.9662 O   0  0  0
  -35.9225    7.2644   66.7473 C   0  0  0
  -34.8814    6.9965   66.5510 H   0  0  0
  -36.5450    6.9076   65.9217 H   0  0  0
  -36.0527    8.7816   66.8493 C   0  0  0
  -35.7295    9.1383   67.8315 H   0  0  0
  -37.1065    9.0573   66.7665 H   0  0  0
  -35.3602    9.4566   65.7762 O   0  0  0
  -33.9794    9.3638   65.9648 C   0  0  0
  -33.3515   10.0611   66.9952 C   0  0  0
  -34.1389   10.9301   67.7610 O   0  0  0
  -33.3838   11.8721   68.5304 C   0  0  0
  -34.0794   12.6181   68.9220 H   0  0  0
  -32.9053   11.3857   69.3862 H   0  0  0
  -32.6540   12.4000   67.9074 H   0  0  0
  -31.9938    9.8667   67.2179 C   0  0  0
  -31.4770   10.3422   68.0436 H   0  0  0
  -31.2692    9.0342   66.3875 C   0  0  0
  -30.2143    8.8608   66.5781 H   0  0  0
  -31.8627    8.4381   65.2969 C   0  0  0
  -31.2542    7.8176   64.6475 H   0  0  0
  -33.2203    8.6088   65.0720 C   0  0  0
  -33.8530    7.9614   63.8920 C   0  0  0
  -35.0066    7.5626   63.9088 O   0  0  0
  -33.0617    7.8584   62.7841 N   0  0  0
  -33.4755    7.5059   61.9318 H   0  0  0
  -32.1022    8.1754   62.7242 H   0  0  0
  2  1  1
  2  3  1
  2 10  2
  3  4  2
  3 12  1
  4  5  1
  4  6  1
  6  7  1
  6  8  2
  8  9  1
  8 10  1
 10 11  1
 12 13  1
 13 14  1
 13 15  1
 13 16  1
 16 17  1
 16 18  1
 16 19  1
 19 20  1
 20 21  2
 20 33  1
 21 22  1
 21 27  1
 22 23  1
 23 24  1
 23 25  1
 23 26  1
 27 28  1
 27 29  2
 29 30  1
 29 31  1
 31 32  1
 31 33  2
 33 34  1
 34 35  2
 34 36  1
 36 37  1
 36 38  1
M  ZZC   1 f1
M  ZZC   2 c15
M  ZZC   3 c10
M  ZZC   4 c11
M  ZZC   5 h6
M  ZZC   6 c12
M  ZZC   7 h5
M  ZZC   8 c13
M  ZZC   9 h4
M  ZZC  10 c14
M  ZZC  11 h3
M  ZZC  12 o3
M  ZZC  13 c9
M  ZZC  14 h7
M  ZZC  15 h8
M  ZZC  16 c8
M  ZZC  17 h10
M  ZZC  18 h9
M  ZZC  19 o2
M  ZZC  20 c7
M  ZZC  21 c2
M  ZZC  22 o1
M  ZZC  23 c1
M  ZZC  24 h14
M  ZZC  25 h15
M  ZZC  26 h16
M  ZZC  27 c3
M  ZZC  28 h13
M  ZZC  29 c4
M  ZZC  30 h12
M  ZZC  31 c5
M  ZZC  32 h11
M  ZZC  33 c6
M  ZZC  34 c16
M  ZZC  35 o4
M  ZZC  36 n1
M  ZZC  37 h1
M  ZZC  38 h2
M  ZZM   1 11
M  ZZI   1 90
M  ZZM   2 37
M  ZZI   2 124
M  ZZM   3 37
M  ZZI   3 124
M  ZZM   4 37
M  ZZI   4 125
M  ZZM   5 5
M  ZZI   5 1
M  ZZM   6 37
M  ZZI   6 125
M  ZZM   7 5
M  ZZI   7 1
M  ZZM   8 37
M  ZZI   8 125
M  ZZM   9 5
M  ZZI   9 1
M  ZZM  10 37
M  ZZI  10 125
M  ZZM  11 5
M  ZZI  11 1
M  ZZM  12 6
M  ZZI  12 59
M  ZZM  13 1
M  ZZI  13 112
M  ZZM  14 5
M  ZZI  14 1
M  ZZM  15 5
M  ZZI  15 1
M  ZZM  16 1
M  ZZI  16 112
M  ZZM  17 5
M  ZZI  17 1
M  ZZM  18 5
M  ZZI  18 1
M  ZZM  19 6
M  ZZI  19 59
M  ZZM  20 37
M  ZZI  20 124
M  ZZM  21 37
M  ZZI  21 124
M  ZZM  22 6
M  ZZI  22 59
M  ZZM  23 1
M  ZZI  23 111
M  ZZM  24 5
M  ZZI  24 1
M  ZZM  25 5
M  ZZI  25 1
M  ZZM  26 5
M  ZZI  26 1
M  ZZM  27 37
M  ZZI  27 125
M  ZZM  28 5
M  ZZI  28 1
M  ZZM  29 37
M  ZZI  29 125
M  ZZM  30 5
M  ZZI  30 1
M  ZZM  31 37
M  ZZI  31 125
M  ZZM  32 5
M  ZZI  32 1
M  ZZM  33 37
M  ZZI  33 124
M  ZZM  34 3
M  ZZI  34 121
M  ZZM  35 7
M  ZZI  35 81
M  ZZM  36 10
M  ZZI  36 212
M  ZZM  37 28
M  ZZI  37 11
M  ZZM  38 28
M  ZZI  38 11
M  END
> <NAME>
Z26326168

> <Score>
-27.525767

> <Natom>
38

> <Nflex>
3

> <Hbond>
-3.850628

> <Hphob>
-6.52699

> <VwInt>
-28.526902

> <Eintl>
7.041088

> <Dsolv>
12.203819

> <SolEl>
6.308246

> <mfScore>
-98.487891

> <RecConf>
1

> <molLogP>
2.48491

$$$$
Z1343453496
  MOLSOFT 11211612053D

 38 39  0  0  1  0  0  0  0  0999 V2000
  -31.9949   10.0767   68.0344 O   0  0  0
  -33.0787   10.9449   67.6355 S   0  0  0
  -33.2257   11.4402   66.2841 O   0  0  0
  -33.0734   12.2545   68.6497 N   0  0  0
  -33.8417   12.8972   68.4371 H   0  0  0
  -32.1577   12.7146   68.6678 H   0  0  0
  -34.5301   10.2887   68.1815 N   0  0  0
  -34.4516    9.9219   69.1331 H   0  0  0
  -35.3149    9.4270   67.2594 C   0  0  0
  -35.4117    9.9237   66.2892 H   0  0  0
  -36.3234    9.3959   67.6762 H   0  0  0
  -34.7378    8.0009   67.1472 C   0  0  2
  -34.0072    7.8406   67.9487 H   0  0  0
  -34.0218    7.8763   65.8148 C   0  0  0
  -34.7243    7.8265   64.6187 C   0  0  0
  -35.8065    7.8477   64.6198 H   0  0  0
  -34.0682    7.7662   63.4107 C   0  0  0
  -34.6349    7.7114   62.4903 H   0  0  0
  -32.6954    7.8007   63.3667 C   0  0  0
  -32.1799    7.7784   62.4130 H   0  0  0
  -31.9799    7.8644   64.5390 C   0  0  0
  -30.8960    7.9012   64.5041 H   0  0  0
  -32.6354    7.8782   65.7527 C   0  0  0
  -32.0445    7.9169   66.6616 H   0  0  0
  -35.8687    6.9667   67.3348 C   0  0  0
  -36.4381    7.2165   68.2352 H   0  0  0
  -36.6020    7.0098   66.5225 H   0  0  0
  -35.3991    5.5433   67.5015 C   0  0  0
  -35.1240    5.0389   68.7646 C   0  0  0
  -35.2301    5.6705   69.6412 H   0  0  0
  -34.7235    3.7273   68.9278 C   0  0  0
  -34.5200    3.3416   69.9215 H   0  0  0
  -34.5809    2.9047   67.8314 C   0  0  0
  -34.2638    1.8743   67.9580 H   0  0  0
  -34.8466    3.3952   66.5717 C   0  0  0
  -34.7378    2.7485   65.7077 H   0  0  0
  -35.2574    4.7020   66.4076 C   0  0  0
  -35.4742    5.0615   65.4080 H   0  0  0
  2  1  2
  2  3  2
  2  4  1
  2  7  1
  4  5  1
  4  6  1
  7  8  1
  7  9  1
  9 10  1
  9 11  1
 12  9  1
 12 13  1
 12 14  1
 12 25  1
 14 15  2
 14 23  1
 15 16  1
 15 17  1
 17 18  1
 17 19  2
 19 20  1
 19 21  1
 21 22  1
 21 23  2
 23 24  1
 25 26  1
 25 27  1
 25 28  1
 28 29  1
 28 37  2
 29 30  1
 29 31  2
 31 32  1
 31 33  1
 33 34  1
 33 35  2
 35 36  1
 35 37  1
 37 38  1
M  ZZC   1 o1
M  ZZC   2 s1
M  ZZC   3 o2
M  ZZC   4 n2
M  ZZC   5 h6
M  ZZC   6 h7
M  ZZC   7 n1
M  ZZC   8 h8
M  ZZC   9 c9
M  ZZC  10 h10
M  ZZC  11 h9
M  ZZC  12 c8
M  ZZC  13 h18
M  ZZC  14 c10
M  ZZC  15 c11
M  ZZC  16 h5
M  ZZC  17 c12
M  ZZC  18 h4
M  ZZC  19 c13
M  ZZC  20 h3
M  ZZC  21 c14
M  ZZC  22 h2
M  ZZC  23 c15
M  ZZC  24 h1
M  ZZC  25 c7
M  ZZC  26 h11
M  ZZC  27 h12
M  ZZC  28 c4
M  ZZC  29 c3
M  ZZC  30 h15
M  ZZC  31 c2
M  ZZC  32 h16
M  ZZC  33 c1
M  ZZC  34 h17
M  ZZC  35 c6
M  ZZC  36 h13
M  ZZC  37 c5
M  ZZC  38 h14
M  ZZM   1 32
M  ZZI   1 73
M  ZZM   2 18
M  ZZI   2 250
M  ZZM   3 32
M  ZZI   3 73
M  ZZM   4 43
M  ZZI   4 226
M  ZZM   5 28
M  ZZI   5 11
M  ZZM   6 28
M  ZZI   6 11
M  ZZM   7 43
M  ZZI   7 196
M  ZZM   8 28
M  ZZI   8 11
M  ZZM   9 1
M  ZZI   9 112
M  ZZM  10 5
M  ZZI  10 1
M  ZZM  11 5
M  ZZI  11 1
M  ZZM  12 1
M  ZZI  12 113
M  ZZM  13 5
M  ZZI  13 1
M  ZZM  14 37
M  ZZI  14 124
M  ZZM  15 37
M  ZZI  15 125
M  ZZM  16 5
M  ZZI  16 1
M  ZZM  17 37
M  ZZI  17 125
M  ZZM  18 5
M  ZZI  18 1
M  ZZM  19 37
M  ZZI  19 125
M  ZZM  20 5
M  ZZI  20 1
M  ZZM  21 37
M  ZZI  21 125
M  ZZM  22 5
M  ZZI  22 1
M  ZZM  23 37
M  ZZI  23 125
M  ZZM  24 5
M  ZZI  24 1
M  ZZM  25 1
M  ZZI  25 112
M  ZZM  26 5
M  ZZI  26 1
M  ZZM  27 5
M  ZZI  27 1
M  ZZM  28 37
M  ZZI  28 124
M  ZZM  29 37
M  ZZI  29 125
M  ZZM  30 5
M  ZZI  30 1
M  ZZM  31 37
M  ZZI  31 125
M  ZZM  32 5
M  ZZI  32 1
M  ZZM  33 37
M  ZZI  33 125
M  ZZM  34 5
M  ZZI  34 1
M  ZZM  35 37
M  ZZI  35 125
M  ZZM  36 5
M  ZZI  36 1
M  ZZM  37 37
M  ZZI  37 125
M  ZZM  38 5
M  ZZI  38 1
M  END
> <NAME>
Z1343453496

> <Score>
-26.05012

> <Natom>
38

> <Nflex>
7

> <Hbond>
-2.424391

> <Hphob>
-5.941376

> <VwInt>
-28.611476

> <Eintl>
9.045637

> <Dsolv>
8.069313

> <SolEl>
3.672428

> <mfScore>
-87.781495

> <RecConf>
1

> <molLogP>
3.16724

$$$$
Z1670776321
  MOLSOFT 11211612053D

 38 40  0  0  1  0  0  0  0  0999 V2000
  -33.6202    0.6662   68.0002 H   0  0  0
  -34.0644    1.5288   68.4748 C   0  0  0
  -34.5549    2.5736   67.6686 C   0  0  0
  -34.6402    2.7231   66.3668 N   0  0  0
  -35.1783    3.9646   66.1312 N   0  0  0
  -35.3841    4.5487   67.2916 C   0  0  0
  -35.0501    3.6765   68.2987 N   0  0  0
  -35.1382    3.7941   69.6685 C   0  0  0
  -35.5629    4.6981   70.0891 H   0  0  0
  -34.7083    2.7912   70.4372 C   0  0  0
  -34.7631    2.8355   71.5199 H   0  0  0
  -34.1451    1.6282   69.8080 C   0  0  0
  -33.7739    0.8322   70.4447 H   0  0  0
  -35.8012    5.8440   67.5304 N   0  0  0
  -35.8322    6.2045   68.4725 H   0  0  0
  -36.1009    6.6702   66.4823 C   0  0  0
  -36.3024    6.3084   65.3342 O   0  0  0
  -36.0968    7.9821   66.8639 N   0  0  0
  -35.9487    8.2130   67.8374 H   0  0  0
  -36.1791    9.0598   65.8992 C   0  0  0
  -36.6995    8.6882   65.0147 H   0  0  0
  -36.8178    9.8311   66.3358 H   0  0  0
  -34.8021    9.6227   65.4989 C   0  0  2
  -34.9851   10.3169   64.6736 H   0  0  0
  -33.8566    8.5496   64.9561 C   0  0  0
  -33.5482    7.8422   65.7324 H   0  0  0
  -32.9435    9.0037   64.5579 H   0  0  0
  -34.3229    7.9855   64.1421 H   0  0  0
  -34.1349   10.4172   66.5800 C   0  0  0
  -33.2934   11.4030   66.3366 N   0  0  0
  -32.8749   11.9622   67.5219 C   0  0  0
  -32.1863   12.7935   67.5025 H   0  0  0
  -33.3830   11.4015   68.6715 C   0  0  0
  -34.4127   10.1000   68.2546 S   0  0  0
  -33.1398   11.7771   70.0818 C   0  0  0
  -32.0838   11.6860   70.3531 H   0  0  0
  -33.7162   11.1317   70.7500 H   0  0  0
  -33.4465   12.8115   70.2623 H   0  0  0
  2  1  1
  2  3  1
  2 12  2
  3  4  2
  3  7  1
  4  5  1
  5  6  2
  6  7  1
  6 14  1
  7  8  1
  8  9  1
  8 10  2
 10 11  1
 10 12  1
 12 13  1
 14 15  1
 14 16  1
 16 17  2
 16 18  1
 18 19  1
 18 20  1
 20 21  1
 20 22  1
 23 20  1
 23 24  1
 23 25  1
 23 29  1
 25 26  1
 25 27  1
 25 28  1
 29 30  2
 29 34  1
 30 31  1
 31 32  1
 31 33  2
 33 34  1
 33 35  1
 35 36  1
 35 37  1
 35 38  1
M  ZZC   1 h1
M  ZZC   2 c14
M  ZZC   3 c10
M  ZZC   4 n5
M  ZZC   5 n4
M  ZZC   6 c9
M  ZZC   7 n6
M  ZZC   8 c11
M  ZZC   9 h4
M  ZZC  10 c12
M  ZZC  11 h3
M  ZZC  12 c13
M  ZZC  13 h2
M  ZZC  14 n3
M  ZZC  15 h5
M  ZZC  16 c8
M  ZZC  17 o1
M  ZZC  18 n2
M  ZZC  19 h6
M  ZZC  20 c7
M  ZZC  21 h7
M  ZZC  22 h8
M  ZZC  23 c5
M  ZZC  24 h16
M  ZZC  25 c6
M  ZZC  26 h10
M  ZZC  27 h11
M  ZZC  28 h9
M  ZZC  29 c4
M  ZZC  30 n1
M  ZZC  31 c3
M  ZZC  32 h12
M  ZZC  33 c2
M  ZZC  34 s1
M  ZZC  35 c1
M  ZZC  36 h13
M  ZZC  37 h14
M  ZZC  38 h15
M  ZZM   1 5
M  ZZI   1 1
M  ZZM   2 2
M  ZZI   2 120
M  ZZM   3 63
M  ZZI   3 104
M  ZZM   4 66
M  ZZI   4 222
M  ZZM   5 66
M  ZZI   5 222
M  ZZM   6 63
M  ZZI   6 104
M  ZZM   7 39
M  ZZI   7 215
M  ZZM   8 2
M  ZZI   8 120
M  ZZM   9 5
M  ZZI   9 1
M  ZZM  10 2
M  ZZI  10 120
M  ZZM  11 5
M  ZZI  11 1
M  ZZM  12 2
M  ZZI  12 120
M  ZZM  13 5
M  ZZI  13 1
M  ZZM  14 10
M  ZZI  14 191
M  ZZM  15 28
M  ZZI  15 11
M  ZZM  16 3
M  ZZI  16 121
M  ZZM  17 7
M  ZZI  17 81
M  ZZM  18 10
M  ZZI  18 211
M  ZZM  19 28
M  ZZI  19 11
M  ZZM  20 1
M  ZZI  20 112
M  ZZM  21 5
M  ZZI  21 1
M  ZZM  22 5
M  ZZI  22 1
M  ZZM  23 1
M  ZZI  23 113
M  ZZM  24 5
M  ZZI  24 1
M  ZZM  25 1
M  ZZI  25 111
M  ZZM  26 5
M  ZZI  26 1
M  ZZM  27 5
M  ZZI  27 1
M  ZZM  28 5
M  ZZI  28 1
M  ZZM  29 63
M  ZZI  29 104
M  ZZM  30 66
M  ZZI  30 222
M  ZZM  31 64
M  ZZI  31 105
M  ZZM  32 5
M  ZZI  32 1
M  ZZM  33 63
M  ZZI  33 104
M  ZZM  34 44
M  ZZI  34 248
M  ZZM  35 1
M  ZZI  35 111
M  ZZM  36 5
M  ZZI  36 1
M  ZZM  37 5
M  ZZI  37 1
M  ZZM  38 5
M  ZZI  38 1
M  END
> <NAME>
Z1670776321

> <Score>
-25.731695

> <Natom>
38

> <Nflex>
5

> <Hbond>
-3.090777

> <Hphob>
-6.229034

> <VwInt>
-30.396681

> <Eintl>
6.799119

> <Dsolv>
13.353406

> <SolEl>
5.519772

> <mfScore>
-71.119049

> <RecConf>
1

> <molLogP>
1.716665

$$$$
Z1002387680
  MOLSOFT 11211612053D

 38 40  0  0  0  0  0  0  0  0999 V2000
  -31.8713   12.0694   72.5275 Br  0  0  0
  -32.8059   11.4177   71.0037 C   0  0  0
  -32.7168   11.9824   69.7535 C   0  0  0
  -32.0999   12.8409   69.5329 H   0  0  0
  -33.5054   11.2924   68.7902 C   0  0  0
  -34.2008   10.2488   69.3765 C   0  0  0
  -34.8946    9.5665   68.9055 H   0  0  0
  -33.8348   10.0526   71.0437 S   0  0  0
  -33.5620   11.6644   67.3573 C   0  0  0
  -34.3532   12.3994   67.1981 H   0  0  0
  -32.6162   12.1270   67.0576 H   0  0  0
  -33.8297   10.5319   66.5249 O   0  0  0
  -32.9705   10.5595   65.4106 N   0  0  0
  -32.9977    9.4032   64.8207 C   0  0  0
  -32.2821    9.1325   63.6822 N   0  0  0
  -32.2356    8.2050   63.2612 H   0  0  0
  -31.7181    9.8647   63.2607 H   0  0  0
  -33.8241    8.3065   65.3639 C   0  0  0
  -34.8225    7.7587   64.5796 C   0  0  0
  -34.9940    8.1077   63.5659 H   0  0  0
  -35.6524    6.7941   65.0008 N   0  0  0
  -35.4217    6.3385   66.2415 C   0  0  0
  -34.4449    6.8317   67.0965 C   0  0  0
  -34.3189    6.4558   68.1052 H   0  0  0
  -33.6117    7.8307   66.6455 C   0  0  0
  -32.8243    8.2264   67.2811 H   0  0  0
  -36.2725    5.3247   66.6623 O   0  0  0
  -35.6381    4.3406   67.4111 C   0  0  0
  -34.8075    3.4273   66.7820 C   0  0  0
  -34.6308    3.4812   65.7132 H   0  0  0
  -34.2161    2.4288   67.5300 C   0  0  0
  -33.5609    1.7020   67.0639 H   0  0  0
  -34.4699    2.3540   68.8822 C   0  0  0
  -33.8977    1.3776   69.6025 F   0  0  0
  -35.3037    3.2552   69.5098 C   0  0  0
  -35.4916    3.1679   70.5747 H   0  0  0
  -35.9034    4.2538   68.7673 C   0  0  0
  -36.5742    4.9630   69.2434 H   0  0  0
  2  1  1
  2  3  2
  2  8  1
  3  4  1
  3  5  1
  5  6  2
  5  9  1
  6  7  1
  6  8  1
  9 10  1
  9 11  1
  9 12  1
 12 13  1
 13 14  2
 14 15  1
 14 18  1
 15 16  1
 15 17  1
 18 19  1
 18 25  2
 19 20  1
 19 21  2
 21 22  1
 22 23  2
 22 27  1
 23 24  1
 23 25  1
 25 26  1
 27 28  1
 28 29  1
 28 37  2
 29 30  1
 29 31  2
 31 32  1
 31 33  1
 33 34  1
 33 35  2
 35 36  1
 35 37  1
 37 38  1
M  ZZC   1 &Br1
M  ZZC   2 c16
M  ZZC   3 c15
M  ZZC   4 h4
M  ZZC   5 c14
M  ZZC   6 c17
M  ZZC   7 h3
M  ZZC   8 s1
M  ZZC   9 c13
M  ZZC  10 h5
M  ZZC  11 h6
M  ZZC  12 o2
M  ZZC  13 n2
M  ZZC  14 c12
M  ZZC  15 n3
M  ZZC  16 h1
M  ZZC  17 h2
M  ZZC  18 c10
M  ZZC  19 c11
M  ZZC  20 h7
M  ZZC  21 n1
M  ZZC  22 c7
M  ZZC  23 c8
M  ZZC  24 h9
M  ZZC  25 c9
M  ZZC  26 h8
M  ZZC  27 o1
M  ZZC  28 c6
M  ZZC  29 c1
M  ZZC  30 h13
M  ZZC  31 c2
M  ZZC  32 h12
M  ZZC  33 c3
M  ZZC  34 f1
M  ZZC  35 c4
M  ZZC  36 h11
M  ZZC  37 c5
M  ZZC  38 h10
M  ZZM   1 13
M  ZZI   1 95
M  ZZM   2 63
M  ZZI   2 104
M  ZZM   3 64
M  ZZI   3 105
M  ZZM   4 5
M  ZZI   4 1
M  ZZM   5 64
M  ZZI   5 105
M  ZZM   6 63
M  ZZI   6 104
M  ZZM   7 5
M  ZZI   7 1
M  ZZM   8 44
M  ZZI   8 248
M  ZZM   9 1
M  ZZI   9 112
M  ZZM  10 5
M  ZZI  10 1
M  ZZM  11 5
M  ZZI  11 1
M  ZZM  12 6
M  ZZI  12 65
M  ZZM  13 9
M  ZZI  13 220
M  ZZM  14 3
M  ZZI  14 121
M  ZZM  15 40
M  ZZI  15 224
M  ZZM  16 28
M  ZZI  16 11
M  ZZM  17 28
M  ZZI  17 11
M  ZZM  18 37
M  ZZI  18 124
M  ZZM  19 37
M  ZZI  19 125
M  ZZM  20 5
M  ZZI  20 1
M  ZZM  21 38
M  ZZI  21 223
M  ZZM  22 37
M  ZZI  22 124
M  ZZM  23 37
M  ZZI  23 125
M  ZZM  24 5
M  ZZI  24 1
M  ZZM  25 37
M  ZZI  25 125
M  ZZM  26 5
M  ZZI  26 1
M  ZZM  27 6
M  ZZI  27 59
M  ZZM  28 37
M  ZZI  28 124
M  ZZM  29 37
M  ZZI  29 125
M  ZZM  30 5
M  ZZI  30 1
M  ZZM  31 37
M  ZZI  31 125
M  ZZM  32 5
M  ZZI  32 1
M  ZZM  33 37
M  ZZI  33 124
M  ZZM  34 11
M  ZZI  34 90
M  ZZM  35 37
M  ZZI  35 125
M  ZZM  36 5
M  ZZI  36 1
M  ZZM  37 37
M  ZZI  37 125
M  ZZM  38 5
M  ZZI  38 1
M  END
> <NAME>
Z1002387680

> <Score>
-25.24469

> <Natom>
38

> <Nflex>
3

> <Hbond>
-3.969994

> <Hphob>
-6.664741

> <VwInt>
-26.979977

> <Eintl>
9.426936

> <Dsolv>
12.989843

> <SolEl>
7.124797

> <mfScore>
-102.0418

> <RecConf>
1

> <molLogP>
4.457402

$$$$
Z981514584
  MOLSOFT 11211612053D

 38 40  0  0  0  0  0  0  0  0999 V2000
  -31.8774   12.0700   72.5292 Br  0  0  0
  -32.8094   11.4144   71.0055 C   0  0  0
  -32.7216   11.9786   69.7549 C   0  0  0
  -32.1075   12.8391   69.5340 H   0  0  0
  -33.5079   11.2856   68.7918 C   0  0  0
  -34.2003   10.2402   69.3785 C   0  0  0
  -34.8913    9.5550   68.9077 H   0  0  0
  -33.8341   10.0461   71.0459 S   0  0  0
  -33.5650   11.6567   67.3587 C   0  0  0
  -34.3550   12.3932   67.1997 H   0  0  0
  -32.6186   12.1177   67.0584 H   0  0  0
  -33.8349   10.5244   66.5267 O   0  0  0
  -32.9779   10.5527   65.4109 N   0  0  0
  -33.0046    9.3967   64.8205 C   0  0  0
  -32.2885    9.1280   63.6818 N   0  0  0
  -32.2417    8.2015   63.2589 H   0  0  0
  -31.7253    9.8615   63.2616 H   0  0  0
  -33.8295    8.2979   65.3624 C   0  0  0
  -34.8261    7.7483   64.5772 C   0  0  0
  -34.9993    8.0999   63.5647 H   0  0  0
  -35.6515    6.7784   64.9950 N   0  0  0
  -35.4170    6.3164   66.2329 C   0  0  0
  -34.4430    6.8133   67.0895 C   0  0  0
  -34.3116    6.4332   68.0958 H   0  0  0
  -33.6157    7.8194   66.6424 C   0  0  0
  -32.8294    8.2156   67.2791 H   0  0  0
  -36.2578    5.2898   66.6446 O   0  0  0
  -35.6251    4.3279   67.4238 C   0  0  0
  -34.7864    3.4023   66.8274 C   0  0  0
  -34.6038    3.4271   65.7583 H   0  0  0
  -34.1917    2.4302   67.6069 C   0  0  0
  -33.5301    1.6999   67.1532 H   0  0  0
  -34.4394    2.3829   68.9645 C   0  0  0
  -33.9699    1.6152   69.5712 H   0  0  0
  -35.2903    3.2995   69.5509 C   0  0  0
  -35.4895    3.2497   70.6169 H   0  0  0
  -35.8962    4.2712   68.7790 C   0  0  0
  -36.5746    4.9867   69.2337 H   0  0  0
  2  1  1
  2  3  2
  2  8  1
  3  4  1
  3  5  1
  5  6  2
  5  9  1
  6  7  1
  6  8  1
  9 10  1
  9 11  1
  9 12  1
 12 13  1
 13 14  2
 14 15  1
 14 18  1
 15 16  1
 15 17  1
 18 19  1
 18 25  2
 19 20  1
 19 21  2
 21 22  1
 22 23  2
 22 27  1
 23 24  1
 23 25  1
 25 26  1
 27 28  1
 28 29  2
 28 37  1
 29 30  1
 29 31  1
 31 32  1
 31 33  2
 33 34  1
 33 35  1
 35 36  1
 35 37  2
 37 38  1
M  ZZC   1 &Br1
M  ZZC   2 c16
M  ZZC   3 c15
M  ZZC   4 h4
M  ZZC   5 c14
M  ZZC   6 c17
M  ZZC   7 h3
M  ZZC   8 s1
M  ZZC   9 c13
M  ZZC  10 h5
M  ZZC  11 h6
M  ZZC  12 o2
M  ZZC  13 n2
M  ZZC  14 c12
M  ZZC  15 n3
M  ZZC  16 h1
M  ZZC  17 h2
M  ZZC  18 c10
M  ZZC  19 c11
M  ZZC  20 h7
M  ZZC  21 n1
M  ZZC  22 c7
M  ZZC  23 c8
M  ZZC  24 h9
M  ZZC  25 c9
M  ZZC  26 h8
M  ZZC  27 o1
M  ZZC  28 c4
M  ZZC  29 c3
M  ZZC  30 h12
M  ZZC  31 c2
M  ZZC  32 h13
M  ZZC  33 c1
M  ZZC  34 h14
M  ZZC  35 c6
M  ZZC  36 h10
M  ZZC  37 c5
M  ZZC  38 h11
M  ZZM   1 13
M  ZZI   1 95
M  ZZM   2 63
M  ZZI   2 104
M  ZZM   3 64
M  ZZI   3 105
M  ZZM   4 5
M  ZZI   4 1
M  ZZM   5 64
M  ZZI   5 105
M  ZZM   6 63
M  ZZI   6 104
M  ZZM   7 5
M  ZZI   7 1
M  ZZM   8 44
M  ZZI   8 248
M  ZZM   9 1
M  ZZI   9 112
M  ZZM  10 5
M  ZZI  10 1
M  ZZM  11 5
M  ZZI  11 1
M  ZZM  12 6
M  ZZI  12 65
M  ZZM  13 9
M  ZZI  13 220
M  ZZM  14 3
M  ZZI  14 121
M  ZZM  15 40
M  ZZI  15 224
M  ZZM  16 28
M  ZZI  16 11
M  ZZM  17 28
M  ZZI  17 11
M  ZZM  18 37
M  ZZI  18 124
M  ZZM  19 37
M  ZZI  19 125
M  ZZM  20 5
M  ZZI  20 1
M  ZZM  21 38
M  ZZI  21 223
M  ZZM  22 37
M  ZZI  22 124
M  ZZM  23 37
M  ZZI  23 125
M  ZZM  24 5
M  ZZI  24 1
M  ZZM  25 37
M  ZZI  25 125
M  ZZM  26 5
M  ZZI  26 1
M  ZZM  27 6
M  ZZI  27 59
M  ZZM  28 37
M  ZZI  28 124
M  ZZM  29 37
M  ZZI  29 125
M  ZZM  30 5
M  ZZI  30 1
M  ZZM  31 37
M  ZZI  31 125
M  ZZM  32 5
M  ZZI  32 1
M  ZZM  33 37
M  ZZI  33 125
M  ZZM  34 5
M  ZZI  34 1
M  ZZM  35 37
M  ZZI  35 125
M  ZZM  36 5
M  ZZI  36 1
M  ZZM  37 37
M  ZZI  37 125
M  ZZM  38 5
M  ZZI  38 1
M  END
> <NAME>
Z981514584

> <Score>
-25.193222

> <Natom>
38

> <Nflex>
3

> <Hbond>
-3.965231

> <Hphob>
-6.534835

> <VwInt>
-27.018711

> <Eintl>
9.344479

> <Dsolv>
12.988586

> <SolEl>
7.112763

> <mfScore>
-99.669812

> <RecConf>
1

> <molLogP>
4.188054

$$$$
Z224880570
  MOLSOFT 11211612053D

 39 40  0  0  1  0  0  0  0  0999 V2000
  -36.1045    7.2533   65.1825 O   0  0  0
  -35.7331    7.3363   66.3474 C   0  0  0
  -35.9151    6.2668   67.3928 C   0  0  0
  -36.9046    6.3899   67.8469 H   0  0  0
  -35.1225    6.3873   68.1403 H   0  0  0
  -35.8099    4.9877   66.7478 O   0  0  0
  -35.3522    4.0097   67.6316 C   0  0  0
  -34.5935    2.9956   67.0866 C   0  0  0
  -34.3792    2.9857   66.0229 H   0  0  0
  -34.0886    2.0062   67.9045 C   0  0  0
  -33.4701    1.2194   67.4878 H   0  0  0
  -34.3637    2.0152   69.2558 C   0  0  0
  -33.9632    1.2251   69.8835 H   0  0  0
  -35.1505    3.0124   69.8092 C   0  0  0
  -35.4519    3.0010   71.2781 C   0  0  0
  -36.1362    3.8111   71.5479 H   0  0  0
  -34.5305    3.1283   71.8551 H   0  0  0
  -35.9278    2.0570   71.5610 H   0  0  0
  -35.6439    4.0163   68.9895 C   0  0  0
  -36.2746    4.7859   69.4209 H   0  0  0
  -35.0834    8.4071   66.9039 O   0  0  0
  -34.6574    9.4009   65.9563 C   0  0  1
  -35.4793    9.6311   65.2677 H   0  0  0
  -34.3300   10.7050   66.6794 C   0  0  0
  -33.5410   11.5282   66.2392 O   0  0  0
  -35.0209   10.9147   67.8437 N   0  0  0
  -34.9220   11.8030   68.3253 H   0  0  0
  -35.6549   10.2253   68.2336 H   0  0  0
  -33.4409    8.9017   65.2154 C   0  0  0
  -32.2244    8.7554   65.8703 C   0  0  0
  -32.1368    8.9599   66.9334 H   0  0  0
  -31.0982    8.3822   65.1739 C   0  0  0
  -30.1478    8.2912   65.6900 H   0  0  0
  -31.1741    8.1281   63.8222 C   0  0  0
  -30.2845    7.8350   63.2736 H   0  0  0
  -32.3842    8.2217   63.1726 C   0  0  0
  -32.4500    7.9954   62.1140 H   0  0  0
  -33.5122    8.6035   63.8637 C   0  0  0
  -34.4552    8.6753   63.3309 H   0  0  0
  2  1  2
  2  3  1
  2 21  1
  3  4  1
  3  5  1
  3  6  1
  6  7  1
  7  8  1
  7 19  2
  8  9  1
  8 10  2
 10 11  1
 10 12  1
 12 13  1
 12 14  2
 14 15  1
 14 19  1
 15 16  1
 15 17  1
 15 18  1
 19 20  1
 22 21  1
 22 23  1
 22 24  1
 22 29  1
 24 25  2
 24 26  1
 26 27  1
 26 28  1
 29 30  2
 29 38  1
 30 31  1
 30 32  1
 32 33  1
 32 34  2
 34 35  1
 34 36  1
 36 37  1
 36 38  2
 38 39  1
M  ZZC   1 o2
M  ZZC   2 c9
M  ZZC   3 c8
M  ZZC   4 h8
M  ZZC   5 h9
M  ZZC   6 o1
M  ZZC   7 c6
M  ZZC   8 c5
M  ZZC   9 h11
M  ZZC  10 c4
M  ZZC  11 h12
M  ZZC  12 c3
M  ZZC  13 h13
M  ZZC  14 c2
M  ZZC  15 c1
M  ZZC  16 h14
M  ZZC  17 h15
M  ZZC  18 h16
M  ZZC  19 c7
M  ZZC  20 h10
M  ZZC  21 o3
M  ZZC  22 c10
M  ZZC  23 h17
M  ZZC  24 c17
M  ZZC  25 o4
M  ZZC  26 n1
M  ZZC  27 h1
M  ZZC  28 h2
M  ZZC  29 c11
M  ZZC  30 c12
M  ZZC  31 h7
M  ZZC  32 c13
M  ZZC  33 h6
M  ZZC  34 c14
M  ZZC  35 h5
M  ZZC  36 c15
M  ZZC  37 h4
M  ZZC  38 c16
M  ZZC  39 h3
M  ZZM   1 7
M  ZZI   1 82
M  ZZM   2 3
M  ZZI   2 123
M  ZZM   3 1
M  ZZI   3 112
M  ZZM   4 5
M  ZZI   4 1
M  ZZM   5 5
M  ZZI   5 1
M  ZZM   6 6
M  ZZI   6 59
M  ZZM   7 37
M  ZZI   7 124
M  ZZM   8 37
M  ZZI   8 125
M  ZZM   9 5
M  ZZI   9 1
M  ZZM  10 37
M  ZZI  10 125
M  ZZM  11 5
M  ZZI  11 1
M  ZZM  12 37
M  ZZI  12 125
M  ZZM  13 5
M  ZZI  13 1
M  ZZM  14 37
M  ZZI  14 124
M  ZZM  15 1
M  ZZI  15 111
M  ZZM  16 5
M  ZZI  16 1
M  ZZM  17 5
M  ZZI  17 1
M  ZZM  18 5
M  ZZI  18 1
M  ZZM  19 37
M  ZZI  19 125
M  ZZM  20 5
M  ZZI  20 1
M  ZZM  21 6
M  ZZI  21 65
M  ZZM  22 1
M  ZZI  22 113
M  ZZM  23 5
M  ZZI  23 1
M  ZZM  24 3
M  ZZI  24 121
M  ZZM  25 7
M  ZZI  25 81
M  ZZM  26 10
M  ZZI  26 212
M  ZZM  27 28
M  ZZI  27 11
M  ZZM  28 28
M  ZZI  28 11
M  ZZM  29 37
M  ZZI  29 124
M  ZZM  30 37
M  ZZI  30 125
M  ZZM  31 5
M  ZZI  31 1
M  ZZM  32 37
M  ZZI  32 125
M  ZZM  33 5
M  ZZI  33 1
M  ZZM  34 37
M  ZZI  34 125
M  ZZM  35 5
M  ZZI  35 1
M  ZZM  36 37
M  ZZI  36 125
M  ZZM  37 5
M  ZZI  37 1
M  ZZM  38 37
M  ZZI  38 125
M  ZZM  39 5
M  ZZI  39 1
M  END
> <NAME>
Z224880570

> <Score>
-28.496297

> <Natom>
39

> <Nflex>
5

> <Hbond>
-4.903839

> <Hphob>
-6.153166

> <VwInt>
-28.241802

> <Eintl>
8.189259

> <Dsolv>
11.783746

> <SolEl>
6.722771

> <mfScore>
-96.158573

> <RecConf>
1

> <molLogP>
2.106869

$$$$
Z18704316
  MOLSOFT 11211612053D

 39 40  0  0  0  0  0  0  0  0999 V2000
  -36.1733    7.1512   64.8080 O   0  0  0
  -35.5856    7.0367   65.8720 C   0  0  0
  -35.4704    5.7320   66.5579 C   0  0  0
  -35.7831    4.8707   65.9786 H   0  0  0
  -35.1117    5.6401   67.8476 C   0  0  0
  -34.8575    6.5096   68.4449 H   0  0  0
  -35.1462    4.3522   68.5426 C   0  0  0
  -35.7189    4.3040   69.8050 C   0  0  0
  -36.0976    5.2215   70.2412 H   0  0  0
  -35.8414    3.0859   70.4607 C   0  0  0
  -36.4660    2.9099   71.7012 O   0  0  0
  -37.1977    4.0584   72.1449 C   0  0  0
  -36.5186    4.8702   72.4253 H   0  0  0
  -37.7610    3.7713   73.0368 H   0  0  0
  -37.9216    4.3852   71.3906 H   0  0  0
  -35.3430    1.9451   69.8559 C   0  0  0
  -35.5085    0.7148   70.4584 O   0  0  0
  -36.1974    0.8482   71.1377 H   0  0  0
  -34.7164    1.9915   68.6314 C   0  0  0
  -34.3327    1.0836   68.1776 H   0  0  0
  -34.6314    3.1973   67.9660 C   0  0  0
  -34.1721    3.2194   66.9826 H   0  0  0
  -35.0047    8.0450   66.5854 O   0  0  0
  -35.2380    9.3348   66.0040 C   0  0  0
  -36.1896    9.7333   66.3717 H   0  0  0
  -35.2944    9.2659   64.9127 H   0  0  0
  -34.1349   10.3192   66.3357 C   0  0  0
  -33.4913   10.8732   65.4530 O   0  0  0
  -33.8506   10.6733   67.7545 C   0  0  0
  -33.0738   11.8007   67.9923 C   0  0  0
  -32.7076   12.4128   67.1742 H   0  0  0
  -32.7497   12.1628   69.2837 C   0  0  0
  -32.1458   13.0405   69.4721 H   0  0  0
  -33.1767   11.3868   70.3350 C   0  0  0
  -32.8387   11.7267   71.5888 F   0  0  0
  -33.9433   10.2663   70.1038 C   0  0  0
  -34.3320    9.5011   71.1349 F   0  0  0
  -34.3109    9.9110   68.8233 C   0  0  0
  -34.9259    9.0295   68.6939 H   0  0  0
  2  1  2
  2  3  1
  2 23  1
  3  4  1
  3  5  2
  5  6  1
  5  7  1
  7  8  1
  7 21  2
  8  9  1
  8 10  2
 10 11  1
 10 16  1
 11 12  1
 12 13  1
 12 14  1
 12 15  1
 16 17  1
 16 19  2
 17 18  1
 19 20  1
 19 21  1
 21 22  1
 23 24  1
 24 25  1
 24 26  1
 24 27  1
 27 28  2
 27 29  1
 29 30  1
 29 38  2
 30 31  1
 30 32  2
 32 33  1
 32 34  1
 34 35  1
 34 36  2
 36 37  1
 36 38  1
 38 39  1
M  ZZC   1 o3
M  ZZC   2 c10
M  ZZC   3 c9
M  ZZC   4 h6
M  ZZC   5 c8
M  ZZC   6 h7
M  ZZC   7 c4
M  ZZC   8 c3
M  ZZC   9 h11
M  ZZC  10 c2
M  ZZC  11 o1
M  ZZC  12 c1
M  ZZC  13 h12
M  ZZC  14 h13
M  ZZC  15 h14
M  ZZC  16 c7
M  ZZC  17 o2
M  ZZC  18 h8
M  ZZC  19 c6
M  ZZC  20 h9
M  ZZC  21 c5
M  ZZC  22 h10
M  ZZC  23 o4
M  ZZC  24 c11
M  ZZC  25 h4
M  ZZC  26 h5
M  ZZC  27 c12
M  ZZC  28 o5
M  ZZC  29 c13
M  ZZC  30 c14
M  ZZC  31 h3
M  ZZC  32 c15
M  ZZC  33 h2
M  ZZC  34 c16
M  ZZC  35 f2
M  ZZC  36 c17
M  ZZC  37 f1
M  ZZC  38 c18
M  ZZC  39 h1
M  ZZM   1 7
M  ZZI   1 82
M  ZZM   2 3
M  ZZI   2 123
M  ZZM   3 2
M  ZZI   3 120
M  ZZM   4 5
M  ZZI   4 1
M  ZZM   5 2
M  ZZI   5 120
M  ZZM   6 5
M  ZZI   6 1
M  ZZM   7 37
M  ZZI   7 124
M  ZZM   8 37
M  ZZI   8 125
M  ZZM   9 5
M  ZZI   9 1
M  ZZM  10 37
M  ZZI  10 124
M  ZZM  11 6
M  ZZI  11 59
M  ZZM  12 1
M  ZZI  12 111
M  ZZM  13 5
M  ZZI  13 1
M  ZZM  14 5
M  ZZI  14 1
M  ZZM  15 5
M  ZZI  15 1
M  ZZM  16 37
M  ZZI  16 124
M  ZZM  17 6
M  ZZI  17 62
M  ZZM  18 29
M  ZZI  18 27
M  ZZM  19 37
M  ZZI  19 125
M  ZZM  20 5
M  ZZI  20 1
M  ZZM  21 37
M  ZZI  21 125
M  ZZM  22 5
M  ZZI  22 1
M  ZZM  23 6
M  ZZI  23 65
M  ZZM  24 1
M  ZZI  24 112
M  ZZM  25 5
M  ZZI  25 1
M  ZZM  26 5
M  ZZI  26 1
M  ZZM  27 3
M  ZZI  27 122
M  ZZM  28 7
M  ZZI  28 80
M  ZZM  29 37
M  ZZI  29 124
M  ZZM  30 37
M  ZZI  30 125
M  ZZM  31 5
M  ZZI  31 1
M  ZZM  32 37
M  ZZI  32 125
M  ZZM  33 5
M  ZZI  33 1
M  ZZM  34 37
M  ZZI  34 124
M  ZZM  35 11
M  ZZI  35 90
M  ZZM  36 37
M  ZZI  36 124
M  ZZM  37 11
M  ZZI  37 90
M  ZZM  38 37
M  ZZI  38 125
M  ZZM  39 5
M  ZZI  39 1
M  END
> <NAME>
Z18704316

> <Score>
-27.339041

> <Natom>
39

> <Nflex>
2

> <Hbond>
-3.547242

> <Hphob>
-6.55292

> <VwInt>
-26.76133

> <Eintl>
8.24796

> <Dsolv>
10.859528

> <SolEl>
5.216094

> <mfScore>
-67.819853

> <RecConf>
1

> <molLogP>
3.769497

$$$$
Z89271888
  MOLSOFT 11211612053D

 39 41  0  0  0  0  0  0  0  0999 V2000
  -29.5635    9.4073   68.9385 O   0  0  0
  -30.5437    8.6502   69.1470 C   0  0  0
  -30.7371    7.8744   70.1274 O   0  5  0
  -31.6088    8.6554   68.0530 C   0  0  0
  -32.8619    9.1292   68.4875 C   0  0  0
  -33.6780    8.6038   69.4651 C   0  0  0
  -33.4187    7.7276   70.0442 H   0  0  0
  -34.8921    9.3015   69.5866 C   0  0  0
  -35.6668    9.0131   70.2748 H   0  0  0
  -34.9778   10.3631   68.7137 C   0  0  0
  -35.7946   11.0487   68.5644 H   0  0  0
  -33.5476   10.5622   67.8007 S   0  0  0
  -31.3317    8.2957   66.7814 C   0  0  0
  -30.3081    8.0456   66.5211 H   0  0  0
  -32.3136    8.1182   65.6957 C   0  0  0
  -31.9514    8.3721   64.3836 C   0  0  0
  -30.9571    8.7373   64.1482 H   0  0  0
  -32.8439    8.1416   63.3562 C   0  0  0
  -32.5417    8.3297   62.3310 H   0  0  0
  -34.1113    7.6644   63.6219 C   0  0  0
  -34.8069    7.5033   62.8068 H   0  0  0
  -34.4859    7.3830   64.9188 C   0  0  0
  -33.5706    7.5790   65.9414 C   0  0  0
  -33.8203    7.2968   66.9532 H   0  0  0
  -35.7848    6.8812   65.0996 O   0  0  0
  -36.2084    6.7215   66.4691 C   0  0  0
  -37.3022    6.6923   66.4592 H   0  0  0
  -35.9397    7.6033   67.0597 H   0  0  0
  -35.7270    5.4367   67.1006 C   0  0  0
  -35.4440    4.3134   66.3359 C   0  0  0
  -35.5691    4.3406   65.2606 H   0  0  0
  -34.9958    3.1482   66.9226 C   0  0  0
  -34.7701    2.2836   66.3066 H   0  0  0
  -34.8433    3.0765   68.2900 C   0  0  0
  -34.4956    2.1572   68.7504 H   0  0  0
  -35.1485    4.1729   69.0671 C   0  0  0
  -35.0446    4.1159   70.1459 H   0  0  0
  -35.5888    5.3409   68.4784 C   0  0  0
  -35.8232    6.1923   69.1095 H   0  0  0
  2  1  2
  2  3  1
  2  4  1
  4  5  1
  4 13  2
  5  6  2
  5 12  1
  6  7  1
  6  8  1
  8  9  1
  8 10  2
 10 11  1
 10 12  1
 13 14  1
 13 15  1
 15 16  1
 15 23  2
 16 17  1
 16 18  2
 18 19  1
 18 20  1
 20 21  1
 20 22  2
 22 23  1
 22 25  1
 23 24  1
 25 26  1
 26 27  1
 26 28  1
 26 29  1
 29 30  1
 29 38  2
 30 31  1
 30 32  2
 32 33  1
 32 34  1
 34 35  1
 34 36  2
 36 37  1
 36 38  1
 38 39  1
M  ZZC   1 o2
M  ZZC   2 c20
M  ZZC   3 o3
M  ZZC   4 c15
M  ZZC   5 c16
M  ZZC   6 c17
M  ZZC   7 h3
M  ZZC   8 c18
M  ZZC   9 h2
M  ZZC  10 c19
M  ZZC  11 h1
M  ZZC  12 s1
M  ZZC  13 c14
M  ZZC  14 h4
M  ZZC  15 c12
M  ZZC  16 c11
M  ZZC  17 h6
M  ZZC  18 c10
M  ZZC  19 h7
M  ZZC  20 c9
M  ZZC  21 h8
M  ZZC  22 c8
M  ZZC  23 c13
M  ZZC  24 h5
M  ZZC  25 o1
M  ZZC  26 c7
M  ZZC  27 h10
M  ZZC  28 h9
M  ZZC  29 c4
M  ZZC  30 c3
M  ZZC  31 h13
M  ZZC  32 c2
M  ZZC  33 h14
M  ZZC  34 c1
M  ZZC  35 h15
M  ZZC  36 c6
M  ZZC  37 h11
M  ZZC  38 c5
M  ZZC  39 h12
M  ZZM   1 32
M  ZZI   1 71
M  ZZM   2 41
M  ZZI   2 127
M  ZZM   3 32
M  ZZI   3 71
M  ZZM   4 2
M  ZZI   4 120
M  ZZM   5 63
M  ZZI   5 104
M  ZZM   6 64
M  ZZI   6 105
M  ZZM   7 5
M  ZZI   7 1
M  ZZM   8 64
M  ZZI   8 105
M  ZZM   9 5
M  ZZI   9 1
M  ZZM  10 63
M  ZZI  10 104
M  ZZM  11 5
M  ZZI  11 1
M  ZZM  12 44
M  ZZI  12 248
M  ZZM  13 2
M  ZZI  13 120
M  ZZM  14 5
M  ZZI  14 1
M  ZZM  15 37
M  ZZI  15 124
M  ZZM  16 37
M  ZZI  16 125
M  ZZM  17 5
M  ZZI  17 1
M  ZZM  18 37
M  ZZI  18 125
M  ZZM  19 5
M  ZZI  19 1
M  ZZM  20 37
M  ZZI  20 125
M  ZZM  21 5
M  ZZI  21 1
M  ZZM  22 37
M  ZZI  22 124
M  ZZM  23 37
M  ZZI  23 125
M  ZZM  24 5
M  ZZI  24 1
M  ZZM  25 6
M  ZZI  25 59
M  ZZM  26 1
M  ZZI  26 112
M  ZZM  27 5
M  ZZI  27 1
M  ZZM  28 5
M  ZZI  28 1
M  ZZM  29 37
M  ZZI  29 124
M  ZZM  30 37
M  ZZI  30 125
M  ZZM  31 5
M  ZZI  31 1
M  ZZM  32 37
M  ZZI  32 125
M  ZZM  33 5
M  ZZI  33 1
M  ZZM  34 37
M  ZZI  34 125
M  ZZM  35 5
M  ZZI  35 1
M  ZZM  36 37
M  ZZI  36 125
M  ZZM  37 5
M  ZZI  37 1
M  ZZM  38 37
M  ZZI  38 125
M  ZZM  39 5
M  ZZI  39 1
M  CHG  1   3  -1
M  END
> <NAME>
Z89271888

> <Score>
-27.119129

> <Natom>
39

> <Nflex>
3

> <Hbond>
-4.54727

> <Hphob>
-7.36046

> <VwInt>
-21.908116

> <Eintl>
7.822847

> <Dsolv>
10.524048

> <SolEl>
2.32129

> <mfScore>
-84.841935

> <RecConf>
1

> <molLogP>
5.304889

$$$$
Z381145068
  MOLSOFT 11211612053D

 39 41  0  0  0  0  0  0  0  0999 V2000
  -36.3319    5.5308   70.4963 Cl  0  0  0
  -35.6831    4.5176   69.2523 C   0  0  0
  -35.7581    4.8882   67.9114 C   0  0  0
  -35.2573    3.9978   66.9654 C   0  0  0
  -35.3200    4.2152   65.9034 H   0  0  0
  -34.6645    2.8125   67.3454 C   0  0  0
  -34.2729    2.1410   66.5882 H   0  0  0
  -34.5730    2.4749   68.6771 C   0  0  0
  -34.1072    1.5393   68.9708 H   0  0  0
  -35.0910    3.3259   69.6298 C   0  0  0
  -35.0323    3.0502   70.6781 H   0  0  0
  -36.3877    6.1939   67.4776 C   0  0  0
  -37.4560    6.0565   67.2827 H   0  0  0
  -36.2947    6.9544   68.2585 H   0  0  0
  -35.7360    6.7575   66.2358 C   0  0  0
  -36.2815    6.6686   65.1461 O   0  0  0
  -34.4941    7.3091   66.4908 N   0  0  0
  -34.2000    7.4139   67.4573 H   0  0  0
  -33.5772    7.7480   65.5037 C   0  0  0
  -32.3933    8.3656   65.9041 C   0  0  0
  -31.4170    8.7634   65.0770 N   0  0  0
  -31.6491    8.5557   63.7766 C   0  0  0
  -30.8508    8.8624   63.1081 H   0  0  0
  -32.7962    7.9837   63.2723 C   0  0  0
  -32.9085    7.8389   62.2037 H   0  0  0
  -33.7844    7.5737   64.1420 C   0  0  0
  -34.6753    7.1069   63.7406 H   0  0  0
  -32.1302    8.4992   67.2623 O   0  0  0
  -32.5254    9.7108   67.8341 C   0  0  0
  -33.3019   10.6567   67.1774 C   0  0  0
  -33.6428   10.5137   66.1587 H   0  0  0
  -33.6693   11.8099   67.8409 C   0  0  0
  -34.2767   12.5534   67.3387 H   0  0  0
  -33.2741   12.0232   69.1448 C   0  0  0
  -33.5661   12.9340   69.6567 H   0  0  0
  -32.5047   11.0823   69.7967 C   0  0  0
  -32.1886   11.2566   70.8202 H   0  0  0
  -32.1309    9.9253   69.1417 C   0  0  0
  -31.5234    9.1869   69.6551 H   0  0  0
  2  1  1
  2  3  1
  2 10  2
  3  4  2
  3 12  1
  4  5  1
  4  6  1
  6  7  1
  6  8  2
  8  9  1
  8 10  1
 10 11  1
 12 13  1
 12 14  1
 12 15  1
 15 16  2
 15 17  1
 17 18  1
 17 19  1
 19 20  1
 19 26  2
 20 21  2
 20 28  1
 21 22  1
 22 23  1
 22 24  2
 24 25  1
 24 26  1
 26 27  1
 28 29  1
 29 30  1
 29 38  2
 30 31  1
 30 32  2
 32 33  1
 32 34  1
 34 35  1
 34 36  2
 36 37  1
 36 38  1
 38 39  1
M  ZZC   1 &Cl1
M  ZZC   2 c19
M  ZZC   3 c14
M  ZZC   4 c15
M  ZZC   5 h4
M  ZZC   6 c16
M  ZZC   7 h3
M  ZZC   8 c17
M  ZZC   9 h2
M  ZZC  10 c18
M  ZZC  11 h1
M  ZZC  12 c13
M  ZZC  13 h5
M  ZZC  14 h6
M  ZZC  15 c12
M  ZZC  16 o2
M  ZZC  17 n2
M  ZZC  18 h7
M  ZZC  19 c8
M  ZZC  20 c7
M  ZZC  21 n1
M  ZZC  22 c11
M  ZZC  23 h8
M  ZZC  24 c10
M  ZZC  25 h9
M  ZZC  26 c9
M  ZZC  27 h10
M  ZZC  28 o1
M  ZZC  29 c4
M  ZZC  30 c3
M  ZZC  31 h13
M  ZZC  32 c2
M  ZZC  33 h14
M  ZZC  34 c1
M  ZZC  35 h15
M  ZZC  36 c6
M  ZZC  37 h11
M  ZZC  38 c5
M  ZZC  39 h12
M  ZZM   1 12
M  ZZI   1 92
M  ZZM   2 37
M  ZZI   2 124
M  ZZM   3 37
M  ZZI   3 124
M  ZZM   4 37
M  ZZI   4 125
M  ZZM   5 5
M  ZZI   5 1
M  ZZM   6 37
M  ZZI   6 125
M  ZZM   7 5
M  ZZI   7 1
M  ZZM   8 37
M  ZZI   8 125
M  ZZM   9 5
M  ZZI   9 1
M  ZZM  10 37
M  ZZI  10 125
M  ZZM  11 5
M  ZZI  11 1
M  ZZM  12 1
M  ZZI  12 112
M  ZZM  13 5
M  ZZI  13 1
M  ZZM  14 5
M  ZZI  14 1
M  ZZM  15 3
M  ZZI  15 121
M  ZZM  16 7
M  ZZI  16 81
M  ZZM  17 10
M  ZZI  17 191
M  ZZM  18 28
M  ZZI  18 11
M  ZZM  19 37
M  ZZI  19 124
M  ZZM  20 37
M  ZZI  20 124
M  ZZM  21 38
M  ZZI  21 223
M  ZZM  22 37
M  ZZI  22 125
M  ZZM  23 5
M  ZZI  23 1
M  ZZM  24 37
M  ZZI  24 125
M  ZZM  25 5
M  ZZI  25 1
M  ZZM  26 37
M  ZZI  26 125
M  ZZM  27 5
M  ZZI  27 1
M  ZZM  28 6
M  ZZI  28 59
M  ZZM  29 37
M  ZZI  29 124
M  ZZM  30 37
M  ZZI  30 125
M  ZZM  31 5
M  ZZI  31 1
M  ZZM  32 37
M  ZZI  32 125
M  ZZM  33 5
M  ZZI  33 1
M  ZZM  34 37
M  ZZI  34 125
M  ZZM  35 5
M  ZZI  35 1
M  ZZM  36 37
M  ZZI  36 125
M  ZZM  37 5
M  ZZI  37 1
M  ZZM  38 37
M  ZZI  38 125
M  ZZM  39 5
M  ZZI  39 1
M  END
> <NAME>
Z381145068

> <Score>
-27.001271

> <Natom>
39

> <Nflex>
3

> <Hbond>
-1.666072

> <Hphob>
-7.396477

> <VwInt>
-31.828953

> <Eintl>
7.872273

> <Dsolv>
10.519712

> <SolEl>
6.528335

> <mfScore>
-107.599025

> <RecConf>
1

> <molLogP>
4.037278

$$$$
Z27293337
  MOLSOFT 11211612053D

 39 39  0  0  0  0  0  0  0  0999 V2000
  -34.0193    0.7188   68.8921 Br  0  0  0
  -34.7447    2.4424   69.1791 C   0  0  0
  -34.8819    2.9125   70.4691 C   0  0  0
  -34.5750    2.3066   71.3160 H   0  0  0
  -35.4150    4.1664   70.6807 C   0  0  0
  -35.5216    4.5447   71.6928 H   0  0  0
  -35.8128    4.9417   69.6095 C   0  0  0
  -36.2137    5.9245   69.8245 H   0  0  0
  -35.6788    4.4570   68.3105 C   0  0  0
  -35.1355    3.2065   68.0988 C   0  0  0
  -35.0288    2.8295   67.0858 H   0  0  0
  -36.0472    5.1462   67.1502 O   0  0  0
  -36.7637    6.3724   67.3685 C   0  0  0
  -37.3996    6.3086   68.2551 H   0  0  0
  -37.4521    6.5011   66.5295 H   0  0  0
  -35.7794    7.5317   67.4514 C   0  0  0
  -34.9157    7.2398   68.0550 H   0  0  0
  -36.2641    8.4037   67.8982 H   0  0  0
  -35.3061    7.9306   66.0728 C   0  0  0
  -35.8164    7.4523   65.0678 O   0  0  0
  -34.2834    8.8796   66.0240 N   0  0  0
  -33.6832    9.5194   67.2191 C   0  0  0
  -33.9356    8.9169   68.0920 H   0  0  0
  -34.2777   10.8989   67.4767 C   0  0  0
  -34.0968   11.5831   66.6439 H   0  0  0
  -33.8510   11.3523   68.3766 H   0  0  0
  -35.3566   10.8257   67.6288 H   0  0  0
  -32.1595    9.5968   67.1922 C   0  0  0
  -31.7766   10.0262   68.1231 H   0  0  0
  -31.7931   10.2205   66.3727 H   0  0  0
  -31.7191    8.6013   67.0891 H   0  0  0
  -33.8594    9.2973   64.6808 C   0  0  0
  -33.4339   10.3018   64.7106 H   0  0  0
  -34.7347    9.3350   64.0245 H   0  0  0
  -32.8302    8.3361   64.0994 C   0  0  0
  -31.7699    8.0657   64.6392 O   0  0  0
  -33.1794    7.7682   62.9057 N   0  0  0
  -32.5427    7.0998   62.4878 H   0  0  0
  -34.0339    7.9745   62.4012 H   0  0  0
  2  1  1
  2  3  2
  2 10  1
  3  4  1
  3  5  1
  5  6  1
  5  7  2
  7  8  1
  7  9  1
  9 10  2
  9 12  1
 10 11  1
 12 13  1
 13 14  1
 13 15  1
 13 16  1
 16 17  1
 16 18  1
 16 19  1
 19 20  2
 19 21  1
 21 22  1
 21 32  1
 22 23  1
 22 24  1
 22 28  1
 24 25  1
 24 26  1
 24 27  1
 28 29  1
 28 30  1
 28 31  1
 32 33  1
 32 34  1
 32 35  1
 35 36  2
 35 37  1
 37 38  1
 37 39  1
M  ZZC   1 &Br1
M  ZZC   2 c13
M  ZZC   3 c12
M  ZZC   4 h2
M  ZZC   5 c11
M  ZZC   6 h3
M  ZZC   7 c10
M  ZZC   8 h4
M  ZZC   9 c9
M  ZZC  10 c14
M  ZZC  11 h1
M  ZZC  12 o3
M  ZZC  13 c8
M  ZZC  14 h5
M  ZZC  15 h6
M  ZZC  16 c7
M  ZZC  17 h7
M  ZZC  18 h8
M  ZZC  19 c6
M  ZZC  20 o2
M  ZZC  21 n1
M  ZZC  22 c2
M  ZZC  23 h16
M  ZZC  24 c3
M  ZZC  25 h13
M  ZZC  26 h14
M  ZZC  27 h15
M  ZZC  28 c1
M  ZZC  29 h17
M  ZZC  30 h18
M  ZZC  31 h19
M  ZZC  32 c4
M  ZZC  33 h11
M  ZZC  34 h12
M  ZZC  35 c5
M  ZZC  36 o1
M  ZZC  37 n2
M  ZZC  38 h10
M  ZZC  39 h9
M  ZZM   1 13
M  ZZI   1 95
M  ZZM   2 37
M  ZZI   2 124
M  ZZM   3 37
M  ZZI   3 125
M  ZZM   4 5
M  ZZI   4 1
M  ZZM   5 37
M  ZZI   5 125
M  ZZM   6 5
M  ZZI   6 1
M  ZZM   7 37
M  ZZI   7 125
M  ZZM   8 5
M  ZZI   8 1
M  ZZM   9 37
M  ZZI   9 124
M  ZZM  10 37
M  ZZI  10 125
M  ZZM  11 5
M  ZZI  11 1
M  ZZM  12 6
M  ZZI  12 59
M  ZZM  13 1
M  ZZI  13 112
M  ZZM  14 5
M  ZZI  14 1
M  ZZM  15 5
M  ZZI  15 1
M  ZZM  16 1
M  ZZI  16 112
M  ZZM  17 5
M  ZZI  17 1
M  ZZM  18 5
M  ZZI  18 1
M  ZZM  19 3
M  ZZI  19 121
M  ZZM  20 7
M  ZZI  20 81
M  ZZM  21 10
M  ZZI  21 192
M  ZZM  22 1
M  ZZI  22 113
M  ZZM  23 5
M  ZZI  23 1
M  ZZM  24 1
M  ZZI  24 111
M  ZZM  25 5
M  ZZI  25 1
M  ZZM  26 5
M  ZZI  26 1
M  ZZM  27 5
M  ZZI  27 1
M  ZZM  28 1
M  ZZI  28 111
M  ZZM  29 5
M  ZZI  29 1
M  ZZM  30 5
M  ZZI  30 1
M  ZZM  31 5
M  ZZI  31 1
M  ZZM  32 1
M  ZZI  32 112
M  ZZM  33 5
M  ZZI  33 1
M  ZZM  34 5
M  ZZI  34 1
M  ZZM  35 3
M  ZZI  35 121
M  ZZM  36 7
M  ZZI  36 81
M  ZZM  37 10
M  ZZI  37 212
M  ZZM  38 28
M  ZZI  38 11
M  ZZM  39 28
M  ZZI  39 11
M  END
> <NAME>
Z27293337

> <Score>
-26.913297

> <Natom>
39

> <Nflex>
7

> <Hbond>
-5.54766

> <Hphob>
-6.453788

> <VwInt>
-25.587231

> <Eintl>
6.771933

> <Dsolv>
12.090106

> <SolEl>
5.70602

> <mfScore>
-86.247563

> <RecConf>
1

> <molLogP>
1.954933

$$$$
Z1728116856
  MOLSOFT 11211612053D

 39 39  0  0  0  0  0  0  0  0999 V2000
  -34.0387    9.7691   64.0816 O   0  0  0
  -33.3330    8.5547   64.4327 S   0  0  0
  -31.9383    8.5433   64.8205 O   0  0  0
  -33.5019    7.4979   63.1317 N   0  0  0
  -33.9876    7.9146   62.3314 H   0  0  0
  -32.6242    7.0392   62.8653 H   0  0  0
  -34.2594    7.7350   65.7367 C   0  0  0
  -34.5873    6.3976   65.6255 C   0  0  0
  -34.3145    5.8421   64.7365 H   0  0  0
  -35.2279    5.7463   66.6674 C   0  0  0
  -35.5351    4.2831   66.4967 C   0  0  0
  -36.3769    4.1566   65.8112 H   0  0  0
  -35.7822    3.7907   67.4394 H   0  0  0
  -34.6678    3.7558   66.0866 H   0  0  0
  -35.5819    6.4736   67.8106 C   0  0  0
  -36.3060    5.8309   68.9614 C   0  0  0
  -37.3218    5.5526   68.6662 H   0  0  0
  -36.3833    6.5129   69.8119 H   0  0  0
  -35.7678    4.9483   69.3193 H   0  0  0
  -35.2743    7.8287   67.8888 C   0  0  0
  -35.5728    8.3820   68.7717 H   0  0  0
  -34.5947    8.4635   66.8587 C   0  0  0
  -34.2221    9.8092   66.8708 O   0  0  0
  -34.1867   10.3968   68.1751 C   0  0  0
  -35.2034   10.6560   68.4915 H   0  0  0
  -33.7397    9.6959   68.8869 H   0  0  0
  -33.3297   11.6505   68.0738 C   0  0  0
  -32.3452   11.3813   67.6768 H   0  0  0
  -33.7625   12.3229   67.3260 H   0  0  0
  -33.1676   12.3994   69.3917 C   0  0  0
  -32.5330   13.2692   69.2087 H   0  0  0
  -34.1343   12.7931   69.7115 H   0  0  0
  -32.5610   11.5446   70.5033 C   0  0  0
  -33.2675   10.7678   70.8110 H   0  0  0
  -31.6606   11.0382   70.1408 H   0  0  0
  -32.2024   12.3779   71.7192 C   0  0  0
  -31.4272   13.1105   71.4766 H   0  0  0
  -31.8182   11.7387   72.5188 H   0  0  0
  -33.0765   12.9125   72.1025 H   0  0  0
  2  1  2
  2  3  2
  2  4  1
  2  7  1
  4  5  1
  4  6  1
  7  8  2
  7 22  1
  8  9  1
  8 10  1
 10 11  1
 10 15  2
 11 12  1
 11 13  1
 11 14  1
 15 16  1
 15 20  1
 16 17  1
 16 18  1
 16 19  1
 20 21  1
 20 22  2
 22 23  1
 23 24  1
 24 25  1
 24 26  1
 24 27  1
 27 28  1
 27 29  1
 27 30  1
 30 31  1
 30 32  1
 30 33  1
 33 34  1
 33 35  1
 33 36  1
 36 37  1
 36 38  1
 36 39  1
M  ZZC   1 o2
M  ZZC   2 s1
M  ZZC   3 o3
M  ZZC   4 n1
M  ZZC   5 h7
M  ZZC   6 h8
M  ZZC   7 c11
M  ZZC   8 c10
M  ZZC   9 h9
M  ZZC  10 c9
M  ZZC  11 c12
M  ZZC  12 h4
M  ZZC  13 h5
M  ZZC  14 h6
M  ZZC  15 c8
M  ZZC  16 c13
M  ZZC  17 h1
M  ZZC  18 h2
M  ZZC  19 h3
M  ZZC  20 c7
M  ZZC  21 h10
M  ZZC  22 c6
M  ZZC  23 o1
M  ZZC  24 c5
M  ZZC  25 h11
M  ZZC  26 h12
M  ZZC  27 c4
M  ZZC  28 h13
M  ZZC  29 h14
M  ZZC  30 c3
M  ZZC  31 h15
M  ZZC  32 h16
M  ZZC  33 c2
M  ZZC  34 h17
M  ZZC  35 h18
M  ZZC  36 c1
M  ZZC  37 h19
M  ZZC  38 h20
M  ZZC  39 h21
M  ZZM   1 32
M  ZZI   1 73
M  ZZM   2 18
M  ZZI   2 250
M  ZZM   3 32
M  ZZI   3 73
M  ZZM   4 43
M  ZZI   4 226
M  ZZM   5 28
M  ZZI   5 11
M  ZZM   6 28
M  ZZI   6 11
M  ZZM   7 37
M  ZZI   7 124
M  ZZM   8 37
M  ZZI   8 125
M  ZZM   9 5
M  ZZI   9 1
M  ZZM  10 37
M  ZZI  10 124
M  ZZM  11 1
M  ZZI  11 111
M  ZZM  12 5
M  ZZI  12 1
M  ZZM  13 5
M  ZZI  13 1
M  ZZM  14 5
M  ZZI  14 1
M  ZZM  15 37
M  ZZI  15 124
M  ZZM  16 1
M  ZZI  16 111
M  ZZM  17 5
M  ZZI  17 1
M  ZZM  18 5
M  ZZI  18 1
M  ZZM  19 5
M  ZZI  19 1
M  ZZM  20 37
M  ZZI  20 125
M  ZZM  21 5
M  ZZI  21 1
M  ZZM  22 37
M  ZZI  22 124
M  ZZM  23 6
M  ZZI  23 59
M  ZZM  24 1
M  ZZI  24 112
M  ZZM  25 5
M  ZZI  25 1
M  ZZM  26 5
M  ZZI  26 1
M  ZZM  27 1
M  ZZI  27 112
M  ZZM  28 5
M  ZZI  28 1
M  ZZM  29 5
M  ZZI  29 1
M  ZZM  30 1
M  ZZI  30 112
M  ZZM  31 5
M  ZZI  31 1
M  ZZM  32 5
M  ZZI  32 1
M  ZZM  33 1
M  ZZI  33 112
M  ZZM  34 5
M  ZZI  34 1
M  ZZM  35 5
M  ZZI  35 1
M  ZZM  36 1
M  ZZI  36 111
M  ZZM  37 5
M  ZZI  37 1
M  ZZM  38 5
M  ZZI  38 1
M  ZZM  39 5
M  ZZI  39 1
M  END
> <NAME>
Z1728116856

> <Score>
-25.853186

> <Natom>
39

> <Nflex>
6

> <Hbond>
-4.432276

> <Hphob>
-5.822321

> <VwInt>
-24.449325

> <Eintl>
5.288156

> <Dsolv>
7.643277

> <SolEl>
6.633777

> <mfScore>
-61.494558

> <RecConf>
1

> <molLogP>
3.251796

$$$$
Z27682879
  MOLSOFT 11211612053D

 39 40  0  0  0  0  0  0  0  0999 V2000
  -32.6919    8.2884   65.8522 O   0  0  0
  -33.4616    9.1943   66.1425 C   0  0  0
  -33.1714   10.0097   67.3590 C   0  0  0
  -32.1881    9.5504   68.2261 C   0  0  0
  -31.6389    8.6373   68.0147 H   0  0  0
  -31.9029   10.2499   69.3829 C   0  0  0
  -31.1371    9.8830   70.0596 H   0  0  0
  -32.5918   11.4122   69.6698 C   0  0  0
  -32.2483   12.2747   71.1251 Cl  0  0  0
  -33.5543   11.8882   68.8032 C   0  0  0
  -34.0869   12.8078   69.0248 H   0  0  0
  -33.8464   11.1903   67.6486 C   0  0  0
  -34.6082   11.5905   66.9928 H   0  0  0
  -34.6946    9.4782   65.3051 C   0  0  0
  -34.5754    8.9451   64.3558 H   0  0  0
  -34.7157   10.5389   65.0467 H   0  0  0
  -35.9926    9.0471   65.9915 C   0  0  0
  -36.8578    9.3625   65.3995 H   0  0  0
  -36.0993    9.5076   66.9779 H   0  0  0
  -36.0462    7.5413   66.1190 C   0  0  0
  -36.2982    6.8409   65.1499 O   0  0  0
  -35.7599    7.1116   67.4038 N   0  0  0
  -35.7136    7.8077   68.1386 H   0  0  0
  -35.5275    5.7741   67.8029 C   0  0  0
  -35.3753    5.5399   69.1601 C   0  0  0
  -35.4652    6.3542   69.8723 H   0  0  0
  -35.0980    4.2730   69.6294 C   0  0  0
  -34.9742    4.1163   70.6971 H   0  0  0
  -34.9585    3.2347   68.7243 C   0  0  0
  -35.1053    3.4472   67.3622 C   0  0  0
  -34.9792    2.6378   66.6481 H   0  0  0
  -35.4034    4.7180   66.9064 C   0  0  0
  -35.4986    4.8716   65.8377 H   0  0  0
  -34.4893    1.6025   69.3336 S   0  0  0
  -33.5831    1.0274   68.3625 O   0  0  0
  -34.1274    1.7387   70.7293 O   0  0  0
  -35.9547    0.7726   69.2614 N   0  0  0
  -36.5360    0.9928   68.4484 H   0  0  0
  -36.4718    0.7430   70.1467 H   0  0  0
  2  1  2
  2  3  1
  2 14  1
  3  4  2
  3 12  1
  4  5  1
  4  6  1
  6  7  1
  6  8  2
  8  9  1
  8 10  1
 10 11  1
 10 12  2
 12 13  1
 14 15  1
 14 16  1
 14 17  1
 17 18  1
 17 19  1
 17 20  1
 20 21  2
 20 22  1
 22 23  1
 22 24  1
 24 25  2
 24 32  1
 25 26  1
 25 27  1
 27 28  1
 27 29  2
 29 30  1
 29 34  1
 30 31  1
 30 32  2
 32 33  1
 34 35  2
 34 36  2
 34 37  1
 37 38  1
 37 39  1
M  ZZC   1 o1
M  ZZC   2 c7
M  ZZC   3 c6
M  ZZC   4 c1
M  ZZC   5 h15
M  ZZC   6 c2
M  ZZC   7 h14
M  ZZC   8 c3
M  ZZC   9 &Cl1
M  ZZC  10 c4
M  ZZC  11 h13
M  ZZC  12 c5
M  ZZC  13 h12
M  ZZC  14 c8
M  ZZC  15 h10
M  ZZC  16 h11
M  ZZC  17 c9
M  ZZC  18 h8
M  ZZC  19 h9
M  ZZC  20 c10
M  ZZC  21 o2
M  ZZC  22 n1
M  ZZC  23 h7
M  ZZC  24 c11
M  ZZC  25 c12
M  ZZC  26 h6
M  ZZC  27 c13
M  ZZC  28 h5
M  ZZC  29 c14
M  ZZC  30 c15
M  ZZC  31 h4
M  ZZC  32 c16
M  ZZC  33 h3
M  ZZC  34 s1
M  ZZC  35 o3
M  ZZC  36 o4
M  ZZC  37 n2
M  ZZC  38 h1
M  ZZC  39 h2
M  ZZM   1 7
M  ZZI   1 80
M  ZZM   2 3
M  ZZI   2 122
M  ZZM   3 37
M  ZZI   3 124
M  ZZM   4 37
M  ZZI   4 125
M  ZZM   5 5
M  ZZI   5 1
M  ZZM   6 37
M  ZZI   6 125
M  ZZM   7 5
M  ZZI   7 1
M  ZZM   8 37
M  ZZI   8 124
M  ZZM   9 12
M  ZZI   9 92
M  ZZM  10 37
M  ZZI  10 125
M  ZZM  11 5
M  ZZI  11 1
M  ZZM  12 37
M  ZZI  12 125
M  ZZM  13 5
M  ZZI  13 1
M  ZZM  14 1
M  ZZI  14 112
M  ZZM  15 5
M  ZZI  15 1
M  ZZM  16 5
M  ZZI  16 1
M  ZZM  17 1
M  ZZI  17 112
M  ZZM  18 5
M  ZZI  18 1
M  ZZM  19 5
M  ZZI  19 1
M  ZZM  20 3
M  ZZI  20 121
M  ZZM  21 7
M  ZZI  21 81
M  ZZM  22 10
M  ZZI  22 191
M  ZZM  23 28
M  ZZI  23 11
M  ZZM  24 37
M  ZZI  24 124
M  ZZM  25 37
M  ZZI  25 125
M  ZZM  26 5
M  ZZI  26 1
M  ZZM  27 37
M  ZZI  27 125
M  ZZM  28 5
M  ZZI  28 1
M  ZZM  29 37
M  ZZI  29 124
M  ZZM  30 37
M  ZZI  30 125
M  ZZM  31 5
M  ZZI  31 1
M  ZZM  32 37
M  ZZI  32 125
M  ZZM  33 5
M  ZZI  33 1
M  ZZM  34 18
M  ZZI  34 250
M  ZZM  35 32
M  ZZI  35 73
M  ZZM  36 32
M  ZZI  36 73
M  ZZM  37 43
M  ZZI  37 226
M  ZZM  38 28
M  ZZI  38 11
M  ZZM  39 28
M  ZZI  39 11
M  END
> <NAME>
Z27682879

> <Score>
-25.624507

> <Natom>
39

> <Nflex>
6

> <Hbond>
-3.595439

> <Hphob>
-5.469744

> <VwInt>
-32.061879

> <Eintl>
6.106736

> <Dsolv>
13.607857

> <SolEl>
8.17071

> <mfScore>
-86.243322

> <RecConf>
1

> <molLogP>
2.220365

$$$$
Z216242432
  MOLSOFT 11211612053D

 39 40  0  0  1  0  0  0  0  0999 V2000
  -33.7509    0.7469   70.4962 F   0  0  0
  -34.1746    1.6834   69.6335 C   0  0  0
  -34.8682    2.7744   70.1075 C   0  0  0
  -35.0731    2.8653   71.1688 H   0  0  0
  -35.2972    3.7439   69.2225 C   0  0  0
  -35.8522    4.5903   69.6107 H   0  0  0
  -35.0292    3.5982   67.8652 C   0  0  0
  -34.3514    2.4901   67.4001 C   0  0  0
  -34.1534    2.3806   66.3385 H   0  0  0
  -33.9080    1.5362   68.2911 C   0  0  0
  -33.3508    0.6793   67.9397 H   0  0  0
  -35.4237    4.5159   66.8934 O   0  0  0
  -35.5214    5.8484   67.4142 C   0  0  0
  -36.4528    5.9443   67.9849 H   0  0  0
  -34.6593    6.0497   68.0594 H   0  0  0
  -35.5400    6.8166   66.2330 C   0  0  1
  -34.8163    6.4919   65.4796 H   0  0  0
  -36.8147    6.7511   65.5881 O   0  0  0
  -37.4709    7.2330   66.1270 H   0  0  0
  -35.2663    8.2575   66.6798 C   0  0  0
  -35.5171    8.9501   65.8706 H   0  0  0
  -35.9739    8.4986   67.4804 H   0  0  0
  -33.8791    8.4314   67.1741 N   0  0  0
  -33.7242    9.6632   67.9697 C   0  0  0
  -34.4808    9.7021   68.7611 H   0  0  0
  -32.7582    9.6047   68.4844 H   0  0  0
  -33.7674   10.9389   67.1200 C   0  0  1
  -34.7538   11.0578   66.6615 H   0  0  0
  -33.4891   12.1568   67.9844 C   0  0  0
  -33.5239   13.0621   67.3781 H   0  0  0
  -32.4874   12.1141   68.4212 H   0  0  0
  -34.2197   12.2538   68.7923 H   0  0  0
  -32.7808   10.9008   66.0726 O   0  0  0
  -32.9559    9.7369   65.2500 C   0  0  0
  -33.8992    9.8226   64.7007 H   0  0  0
  -32.1605    9.7302   64.5011 H   0  0  0
  -32.8810    8.4590   66.0836 C   0  0  0
  -32.9682    7.5828   65.4358 H   0  0  0
  -31.8857    8.3928   66.5367 H   0  0  0
  2  1  1
  2  3  2
  2 10  1
  3  4  1
  3  5  1
  5  6  1
  5  7  2
  7  8  1
  7 12  1
  8  9  1
  8 10  2
 10 11  1
 12 13  1
 13 14  1
 13 15  1
 16 13  1
 16 17  1
 16 18  1
 16 20  1
 18 19  1
 20 21  1
 20 22  1
 20 23  1
 23 24  1
 23 37  1
 24 25  1
 24 26  1
 27 24  1
 27 28  1
 27 29  1
 27 33  1
 29 30  1
 29 31  1
 29 32  1
 33 34  1
 34 35  1
 34 36  1
 34 37  1
 37 38  1
 37 39  1
M  ZZC   1 f1
M  ZZC   2 c12
M  ZZC   3 c11
M  ZZC   4 h4
M  ZZC   5 c10
M  ZZC   6 h5
M  ZZC   7 c9
M  ZZC   8 c14
M  ZZC   9 h2
M  ZZC  10 c13
M  ZZC  11 h3
M  ZZC  12 o2
M  ZZC  13 c8
M  ZZC  14 h6
M  ZZC  15 h7
M  ZZC  16 c7
M  ZZC  17 h19
M  ZZC  18 o3
M  ZZC  19 h1
M  ZZC  20 c6
M  ZZC  21 h8
M  ZZC  22 h9
M  ZZC  23 n1
M  ZZC  24 c3
M  ZZC  25 h14
M  ZZC  26 h15
M  ZZC  27 c2
M  ZZC  28 h20
M  ZZC  29 c1
M  ZZC  30 h16
M  ZZC  31 h17
M  ZZC  32 h18
M  ZZC  33 o1
M  ZZC  34 c5
M  ZZC  35 h10
M  ZZC  36 h11
M  ZZC  37 c4
M  ZZC  38 h12
M  ZZC  39 h13
M  ZZM   1 11
M  ZZI   1 90
M  ZZM   2 37
M  ZZI   2 124
M  ZZM   3 37
M  ZZI   3 125
M  ZZM   4 5
M  ZZI   4 1
M  ZZM   5 37
M  ZZI   5 125
M  ZZM   6 5
M  ZZI   6 1
M  ZZM   7 37
M  ZZI   7 124
M  ZZM   8 37
M  ZZI   8 125
M  ZZM   9 5
M  ZZI   9 1
M  ZZM  10 37
M  ZZI  10 125
M  ZZM  11 5
M  ZZI  11 1
M  ZZM  12 6
M  ZZI  12 59
M  ZZM  13 1
M  ZZI  13 112
M  ZZM  14 5
M  ZZI  14 1
M  ZZM  15 5
M  ZZI  15 1
M  ZZM  16 1
M  ZZI  16 113
M  ZZM  17 5
M  ZZI  17 1
M  ZZM  18 6
M  ZZI  18 60
M  ZZM  19 21
M  ZZI  19 20
M  ZZM  20 1
M  ZZI  20 112
M  ZZM  21 5
M  ZZI  21 1
M  ZZM  22 5
M  ZZI  22 1
M  ZZM  23 8
M  ZZI  23 216
M  ZZM  24 1
M  ZZI  24 112
M  ZZM  25 5
M  ZZI  25 1
M  ZZM  26 5
M  ZZI  26 1
M  ZZM  27 1
M  ZZI  27 113
M  ZZM  28 5
M  ZZI  28 1
M  ZZM  29 1
M  ZZI  29 111
M  ZZM  30 5
M  ZZI  30 1
M  ZZM  31 5
M  ZZI  31 1
M  ZZM  32 5
M  ZZI  32 1
M  ZZM  33 6
M  ZZI  33 65
M  ZZM  34 1
M  ZZI  34 112
M  ZZM  35 5
M  ZZI  35 1
M  ZZM  36 5
M  ZZI  36 1
M  ZZM  37 1
M  ZZI  37 112
M  ZZM  38 5
M  ZZI  38 1
M  ZZM  39 5
M  ZZI  39 1
M  END
> <NAME>
Z216242432

> <Score>
-24.997959

> <Natom>
39

> <Nflex>
6

> <Hbond>
-4.217672

> <Hphob>
-6.532452

> <VwInt>
-22.019528

> <Eintl>
7.596647

> <Dsolv>
9.334503

> <SolEl>
2.224461

> <mfScore>
-78.706209

> <RecConf>
1

> <molLogP>
1.636444

$$$$
Z94605063
  MOLSOFT 11211612053D

 40 42  0  0  0  0  0  0  0  0999 V2000
  -35.9814    5.0549   65.6747 O   0  0  0
  -35.6932    5.2213   66.8521 C   0  0  0
  -35.2538    4.1616   67.7808 C   0  0  0
  -34.6590    3.0217   67.2747 C   0  0  0
  -34.4862    2.8751   65.9532 F   0  0  0
  -34.2125    2.0245   68.1172 C   0  0  0
  -33.7301    1.1449   67.7053 H   0  0  0
  -34.3789    2.1521   69.4818 C   0  0  0
  -34.0346    1.3657   70.1468 H   0  0  0
  -34.9887    3.2793   69.9976 C   0  0  0
  -35.1323    3.3821   71.0682 H   0  0  0
  -35.4216    4.2793   69.1513 C   0  0  0
  -36.0326    5.3479   69.6887 F   0  0  0
  -35.6821    6.4055   67.5214 O   0  0  0
  -35.9800    7.5373   66.6988 C   0  0  0
  -37.0371    7.7885   66.8170 H   0  0  0
  -35.7832    7.3175   65.6498 H   0  0  0
  -35.1423    8.6943   67.2200 C   0  0  0
  -34.4296    9.4790   66.3112 N   0  0  0
  -34.4166    9.2153   64.8643 C   0  0  0
  -34.1874   10.1345   64.3181 H   0  0  0
  -35.3951    8.8657   64.5278 H   0  0  0
  -33.3464    8.1838   64.5259 C   0  0  0
  -32.5393    7.7562   65.3355 O   0  0  0
  -33.3447    7.7671   63.2190 N   0  0  0
  -32.6482    7.0918   62.9187 H   0  0  0
  -33.9769    8.1131   62.5052 H   0  0  0
  -33.6787   10.5557   66.7470 C   0  0  0
  -33.0552   11.3074   66.0134 O   0  0  0
  -33.6441   10.7844   68.1943 C   0  0  0
  -34.3455    9.9257   69.0069 C   0  0  0
  -35.1377    8.8948   68.5008 N   0  0  0
  -34.2475   10.0863   70.3754 C   0  0  0
  -34.7740    9.4024   71.0338 H   0  0  0
  -33.4833   11.1056   70.9120 C   0  0  0
  -33.4124   11.2217   71.9890 H   0  0  0
  -32.8112   11.9796   70.0830 C   0  0  0
  -32.2100   12.7776   70.5060 H   0  0  0
  -32.8854   11.8218   68.7154 C   0  0  0
  -32.3333   12.4969   68.0676 H   0  0  0
  2  1  2
  2  3  1
  2 14  1
  3  4  2
  3 12  1
  4  5  1
  4  6  1
  6  7  1
  6  8  2
  8  9  1
  8 10  1
 10 11  1
 10 12  2
 12 13  1
 14 15  1
 15 16  1
 15 17  1
 15 18  1
 18 19  1
 18 32  2
 19 20  1
 19 28  1
 20 21  1
 20 22  1
 20 23  1
 23 24  2
 23 25  1
 25 26  1
 25 27  1
 28 29  2
 28 30  1
 30 31  2
 30 39  1
 31 32  1
 31 33  1
 33 34  1
 33 35  2
 35 36  1
 35 37  1
 37 38  1
 37 39  2
 39 40  1
M  ZZC   1 o3
M  ZZC   2 c10
M  ZZC   3 c11
M  ZZC   4 c12
M  ZZC   5 f2
M  ZZC   6 c13
M  ZZC   7 h7
M  ZZC   8 c14
M  ZZC   9 h6
M  ZZC  10 c15
M  ZZC  11 h5
M  ZZC  12 c16
M  ZZC  13 f1
M  ZZC  14 o2
M  ZZC  15 c9
M  ZZC  16 h8
M  ZZC  17 h9
M  ZZC  18 c8
M  ZZC  19 n1
M  ZZC  20 c17
M  ZZC  21 h3
M  ZZC  22 h4
M  ZZC  23 c18
M  ZZC  24 o4
M  ZZC  25 n3
M  ZZC  26 h1
M  ZZC  27 h2
M  ZZC  28 c7
M  ZZC  29 o1
M  ZZC  30 c5
M  ZZC  31 c4
M  ZZC  32 n2
M  ZZC  33 c3
M  ZZC  34 h11
M  ZZC  35 c2
M  ZZC  36 h12
M  ZZC  37 c1
M  ZZC  38 h13
M  ZZC  39 c6
M  ZZC  40 h10
M  ZZM   1 7
M  ZZI   1 82
M  ZZM   2 3
M  ZZI   2 123
M  ZZM   3 37
M  ZZI   3 124
M  ZZM   4 37
M  ZZI   4 124
M  ZZM   5 11
M  ZZI   5 90
M  ZZM   6 37
M  ZZI   6 125
M  ZZM   7 5
M  ZZI   7 1
M  ZZM   8 37
M  ZZI   8 125
M  ZZM   9 5
M  ZZI   9 1
M  ZZM  10 37
M  ZZI  10 125
M  ZZM  11 5
M  ZZI  11 1
M  ZZM  12 37
M  ZZI  12 124
M  ZZM  13 11
M  ZZI  13 90
M  ZZM  14 6
M  ZZI  14 61
M  ZZM  15 1
M  ZZI  15 112
M  ZZM  16 5
M  ZZI  16 1
M  ZZM  17 5
M  ZZI  17 1
M  ZZM  18 3
M  ZZI  18 121
M  ZZM  19 10
M  ZZI  19 192
M  ZZM  20 1
M  ZZI  20 112
M  ZZM  21 5
M  ZZI  21 1
M  ZZM  22 5
M  ZZI  22 1
M  ZZM  23 3
M  ZZI  23 121
M  ZZM  24 7
M  ZZI  24 81
M  ZZM  25 10
M  ZZI  25 212
M  ZZM  26 28
M  ZZI  26 11
M  ZZM  27 28
M  ZZI  27 11
M  ZZM  28 3
M  ZZI  28 121
M  ZZM  29 7
M  ZZI  29 81
M  ZZM  30 37
M  ZZI  30 124
M  ZZM  31 37
M  ZZI  31 124
M  ZZM  32 9
M  ZZI  32 220
M  ZZM  33 37
M  ZZI  33 125
M  ZZM  34 5
M  ZZI  34 1
M  ZZM  35 37
M  ZZI  35 125
M  ZZM  36 5
M  ZZI  36 1
M  ZZM  37 37
M  ZZI  37 125
M  ZZM  38 5
M  ZZI  38 1
M  ZZM  39 37
M  ZZI  39 125
M  ZZM  40 5
M  ZZI  40 1
M  END
> <NAME>
Z94605063

> <Score>
-34.194119

> <Natom>
40

> <Nflex>
4

> <Hbond>
-6.64469

> <Hphob>
-5.776396

> <VwInt>
-32.46219

> <Eintl>
6.533346

> <Dsolv>
14.55853

> <SolEl>
8.530946

> <mfScore>
-69.520106

> <RecConf>
1

> <molLogP>
1.252922

$$$$
Z27681627
  MOLSOFT 11211612053D

 40 42  0  0  0  0  0  0  0  0999 V2000
  -33.6230    0.9801   68.4056 O   0  0  0
  -34.5218    1.5320   69.3969 S   0  0  0
  -34.1497    1.6446   70.7921 O   0  0  0
  -35.9880    0.7088   69.3172 N   0  0  0
  -36.5522    0.9179   68.4886 H   0  0  0
  -36.5200    0.7170   70.1939 H   0  0  0
  -35.0140    3.1661   68.8224 C   0  0  0
  -35.1830    4.1787   69.7510 C   0  0  0
  -35.0602    4.0012   70.8157 H   0  0  0
  -35.4956    5.4454   69.3076 C   0  0  0
  -35.6077    6.2440   70.0346 H   0  0  0
  -35.6442    5.7005   67.9544 C   0  0  0
  -35.4882    4.6713   67.0334 C   0  0  0
  -35.5784    4.8445   65.9672 H   0  0  0
  -35.1598    3.4011   67.4643 C   0  0  0
  -35.0117    2.6093   66.7347 H   0  0  0
  -35.8736    7.0423   67.5784 N   0  0  0
  -35.8140    7.7273   68.3268 H   0  0  0
  -36.0907    7.4945   66.2866 C   0  0  0
  -36.4098    6.8086   65.3259 O   0  0  0
  -35.8218    8.9747   66.1485 C   0  0  0
  -36.2490    9.3574   65.2159 H   0  0  0
  -36.2639    9.5300   66.9806 H   0  0  0
  -34.3729    9.1953   66.1260 N   0  0  0
  -33.5548    8.8215   65.0906 C   0  0  0
  -33.8134    8.3121   63.8318 C   0  0  0
  -34.8178    8.1455   63.4572 H   0  0  0
  -32.7132    8.0219   63.0567 C   0  0  0
  -32.8616    7.6267   62.0589 H   0  0  0
  -31.4296    8.2080   63.5214 C   0  0  0
  -30.5884    7.9604   62.8823 H   0  0  0
  -31.1898    8.6840   64.7909 C   0  0  0
  -30.1776    8.8067   65.1599 H   0  0  0
  -32.2784    9.0190   65.5732 C   0  0  0
  -32.3032    9.5464   66.8354 N   0  0  0
  -33.5772    9.6483   67.1597 C   0  0  0
  -34.1118   10.1475   68.4531 C   0  0  0
  -34.8543   11.2694   68.2781 F   0  0  0
  -34.9209    9.2294   69.0536 F   0  0  0
  -33.1386   10.4583   69.3520 F   0  0  0
  2  1  2
  2  3  2
  2  4  1
  2  7  1
  4  5  1
  4  6  1
  7  8  1
  7 15  2
  8  9  1
  8 10  2
 10 11  1
 10 12  1
 12 13  2
 12 17  1
 13 14  1
 13 15  1
 15 16  1
 17 18  1
 17 19  1
 19 20  2
 19 21  1
 21 22  1
 21 23  1
 21 24  1
 24 25  1
 24 36  1
 25 26  1
 25 34  2
 26 27  1
 26 28  2
 28 29  1
 28 30  1
 30 31  1
 30 32  2
 32 33  1
 32 34  1
 34 35  1
 35 36  2
 36 37  1
 37 38  1
 37 39  1
 37 40  1
M  ZZC   1 o2
M  ZZC   2 s1
M  ZZC   3 o3
M  ZZC   4 n4
M  ZZC   5 h1
M  ZZC   6 h2
M  ZZC   7 c13
M  ZZC   8 c12
M  ZZC   9 h5
M  ZZC  10 c11
M  ZZC  11 h6
M  ZZC  12 c10
M  ZZC  13 c15
M  ZZC  14 h3
M  ZZC  15 c14
M  ZZC  16 h4
M  ZZC  17 n3
M  ZZC  18 h7
M  ZZC  19 c9
M  ZZC  20 o1
M  ZZC  21 c8
M  ZZC  22 h8
M  ZZC  23 h9
M  ZZC  24 n2
M  ZZC  25 c4
M  ZZC  26 c3
M  ZZC  27 h11
M  ZZC  28 c2
M  ZZC  29 h12
M  ZZC  30 c1
M  ZZC  31 h13
M  ZZC  32 c6
M  ZZC  33 h10
M  ZZC  34 c5
M  ZZC  35 n1
M  ZZC  36 c7
M  ZZC  37 c16
M  ZZC  38 f1
M  ZZC  39 f2
M  ZZC  40 f3
M  ZZM   1 32
M  ZZI   1 73
M  ZZM   2 18
M  ZZI   2 250
M  ZZM   3 32
M  ZZI   3 73
M  ZZM   4 43
M  ZZI   4 226
M  ZZM   5 28
M  ZZI   5 11
M  ZZM   6 28
M  ZZI   6 11
M  ZZM   7 37
M  ZZI   7 124
M  ZZM   8 37
M  ZZI   8 125
M  ZZM   9 5
M  ZZI   9 1
M  ZZM  10 37
M  ZZI  10 125
M  ZZM  11 5
M  ZZI  11 1
M  ZZM  12 37
M  ZZI  12 124
M  ZZM  13 37
M  ZZI  13 125
M  ZZM  14 5
M  ZZI  14 1
M  ZZM  15 37
M  ZZI  15 125
M  ZZM  16 5
M  ZZI  16 1
M  ZZM  17 10
M  ZZI  17 191
M  ZZM  18 28
M  ZZI  18 11
M  ZZM  19 3
M  ZZI  19 121
M  ZZM  20 7
M  ZZI  20 81
M  ZZM  21 1
M  ZZI  21 112
M  ZZM  22 5
M  ZZI  22 1
M  ZZM  23 5
M  ZZI  23 1
M  ZZM  24 39
M  ZZI  24 215
M  ZZM  25 63
M  ZZI  25 104
M  ZZM  26 37
M  ZZI  26 125
M  ZZM  27 5
M  ZZI  27 1
M  ZZM  28 37
M  ZZI  28 125
M  ZZM  29 5
M  ZZI  29 1
M  ZZM  30 37
M  ZZI  30 125
M  ZZM  31 5
M  ZZI  31 1
M  ZZM  32 37
M  ZZI  32 125
M  ZZM  33 5
M  ZZI  33 1
M  ZZM  34 64
M  ZZI  34 105
M  ZZM  35 66
M  ZZI  35 222
M  ZZM  36 63
M  ZZI  36 104
M  ZZM  37 1
M  ZZI  37 110
M  ZZM  38 11
M  ZZI  38 90
M  ZZM  39 11
M  ZZI  39 90
M  ZZM  40 11
M  ZZI  40 90
M  END
> <NAME>
Z27681627

> <Score>
-28.128337

> <Natom>
40

> <Nflex>
4

> <Hbond>
-3.611099

> <Hphob>
-6.609069

> <VwInt>
-31.45678

> <Eintl>
6.236805

> <Dsolv>
12.052955

> <SolEl>
8.261946

> <mfScore>
-95.423814

> <RecConf>
1

> <molLogP>
2.132328

$$$$
Z225692076
  MOLSOFT 11211612053D

 40 41  0  0  1  0  0  0  0  0999 V2000
  -38.3038    4.6845   71.9143 Cl  0  0  0
  -36.9744    5.6422   71.3771 C   0  0  0
  -36.3282    6.4681   72.2743 C   0  0  0
  -36.6682    6.5329   73.3010 H   0  0  0
  -35.2407    7.2121   71.8655 C   0  0  0
  -34.7252    7.8562   72.5715 H   0  0  0
  -34.8155    7.1396   70.5554 C   0  0  0
  -33.9600    7.7256   70.2350 H   0  0  0
  -35.4860    6.3397   69.6503 C   0  0  0
  -36.5643    5.5687   70.0612 C   0  0  0
  -37.0786    4.8974   69.3851 H   0  0  0
  -34.9810    6.3490   68.3496 O   0  0  0
  -35.9666    6.0860   67.3301 C   0  0  2
  -36.9918    6.1876   67.6995 H   0  0  0
  -35.7073    4.7145   66.7143 C   0  0  0
  -36.4191    4.5068   65.9100 H   0  0  0
  -35.8036    3.9154   67.4540 H   0  0  0
  -34.7092    4.6633   66.2702 H   0  0  0
  -35.7710    7.1683   66.2864 C   0  0  0
  -36.2510    7.0874   65.1644 O   0  0  0
  -35.0165    8.2271   66.7526 N   0  0  0
  -34.6027    8.1416   67.6757 H   0  0  0
  -34.5715    9.3045   65.8797 C   0  0  1
  -35.3895    9.5279   65.1852 H   0  0  0
  -34.2956   10.5967   66.6568 C   0  0  0
  -33.5579   11.4758   66.2358 O   0  0  0
  -35.0343   10.7677   67.7995 N   0  0  0
  -34.9758   11.6524   68.2947 H   0  0  0
  -35.7031   10.0803   68.1303 H   0  0  0
  -33.3530    8.8727   65.1058 C   0  0  0
  -32.1087    8.7962   65.7196 C   0  0  0
  -31.9929    9.0204   66.7758 H   0  0  0
  -30.9915    8.4619   64.9901 C   0  0  0
  -30.0208    8.4216   65.4739 H   0  0  0
  -31.1008    8.1875   63.6454 C   0  0  0
  -30.2174    7.9284   63.0710 H   0  0  0
  -32.3363    8.2106   63.0391 C   0  0  0
  -32.4286    7.9639   61.9876 H   0  0  0
  -33.4582    8.5424   63.7639 C   0  0  0
  -34.4228    8.5510   63.2654 H   0  0  0
  2  1  1
  2  3  1
  2 10  2
  3  4  1
  3  5  2
  5  6  1
  5  7  1
  7  8  1
  7  9  2
  9 10  1
  9 12  1
 10 11  1
 13 12  1
 13 14  1
 13 15  1
 13 19  1
 15 16  1
 15 17  1
 15 18  1
 19 20  2
 19 21  1
 21 22  1
 23 21  1
 23 24  1
 23 25  1
 23 30  1
 25 26  2
 25 27  1
 27 28  1
 27 29  1
 30 31  1
 30 39  2
 31 32  1
 31 33  2
 33 34  1
 33 35  1
 35 36  1
 35 37  2
 37 38  1
 37 39  1
 39 40  1
M  ZZC   1 &Cl1
M  ZZC   2 c16
M  ZZC   3 c15
M  ZZC   4 h2
M  ZZC   5 c14
M  ZZC   6 h3
M  ZZC   7 c13
M  ZZC   8 h4
M  ZZC   9 c12
M  ZZC  10 c17
M  ZZC  11 h1
M  ZZC  12 o3
M  ZZC  13 c2
M  ZZC  14 h17
M  ZZC  15 c1
M  ZZC  16 h13
M  ZZC  17 h14
M  ZZC  18 h15
M  ZZC  19 c3
M  ZZC  20 o1
M  ZZC  21 n1
M  ZZC  22 h12
M  ZZC  23 c4
M  ZZC  24 h16
M  ZZC  25 c11
M  ZZC  26 o2
M  ZZC  27 n2
M  ZZC  28 h5
M  ZZC  29 h6
M  ZZC  30 c5
M  ZZC  31 c10
M  ZZC  32 h7
M  ZZC  33 c9
M  ZZC  34 h8
M  ZZC  35 c8
M  ZZC  36 h9
M  ZZC  37 c7
M  ZZC  38 h10
M  ZZC  39 c6
M  ZZC  40 h11
M  ZZM   1 12
M  ZZI   1 92
M  ZZM   2 37
M  ZZI   2 124
M  ZZM   3 37
M  ZZI   3 125
M  ZZM   4 5
M  ZZI   4 1
M  ZZM   5 37
M  ZZI   5 125
M  ZZM   6 5
M  ZZI   6 1
M  ZZM   7 37
M  ZZI   7 125
M  ZZM   8 5
M  ZZI   8 1
M  ZZM   9 37
M  ZZI   9 124
M  ZZM  10 37
M  ZZI  10 125
M  ZZM  11 5
M  ZZI  11 1
M  ZZM  12 6
M  ZZI  12 59
M  ZZM  13 1
M  ZZI  13 113
M  ZZM  14 5
M  ZZI  14 1
M  ZZM  15 1
M  ZZI  15 111
M  ZZM  16 5
M  ZZI  16 1
M  ZZM  17 5
M  ZZI  17 1
M  ZZM  18 5
M  ZZI  18 1
M  ZZM  19 3
M  ZZI  19 121
M  ZZM  20 7
M  ZZI  20 81
M  ZZM  21 10
M  ZZI  21 211
M  ZZM  22 28
M  ZZI  22 11
M  ZZM  23 1
M  ZZI  23 113
M  ZZM  24 5
M  ZZI  24 1
M  ZZM  25 3
M  ZZI  25 121
M  ZZM  26 7
M  ZZI  26 81
M  ZZM  27 10
M  ZZI  27 212
M  ZZM  28 28
M  ZZI  28 11
M  ZZM  29 28
M  ZZI  29 11
M  ZZM  30 37
M  ZZI  30 124
M  ZZM  31 37
M  ZZI  31 125
M  ZZM  32 5
M  ZZI  32 1
M  ZZM  33 37
M  ZZI  33 125
M  ZZM  34 5
M  ZZI  34 1
M  ZZM  35 37
M  ZZI  35 125
M  ZZM  36 5
M  ZZI  36 1
M  ZZM  37 37
M  ZZI  37 125
M  ZZM  38 5
M  ZZI  38 1
M  ZZM  39 37
M  ZZI  39 125
M  ZZM  40 5
M  ZZI  40 1
M  END
> <NAME>
Z225692076

> <Score>
-27.855668

> <Natom>
40

> <Nflex>
5

> <Hbond>
-5.00652

> <Hphob>
-5.83581

> <VwInt>
-26.526624

> <Eintl>
9.604835

> <Dsolv>
11.488582

> <SolEl>
5.501527

> <mfScore>
-92.401465

> <RecConf>
1

> <molLogP>
2.294652

$$$$
Z647909900
  MOLSOFT 11211612053D

 40 41  0  0  1  0  0  0  0  0999 V2000
  -37.3451    7.8098   65.6150 H   0  0  0
  -36.5214    7.4403   65.2419 O   0  0  0
  -35.5286    7.5910   66.2562 C   0  0  1
  -35.8959    8.3725   66.9325 H   0  0  0
  -35.3835    6.2912   67.0151 C   0  0  0
  -35.3556    6.2926   68.4024 C   0  0  0
  -35.4638    7.2208   68.9559 H   0  0  0
  -35.1733    5.1174   69.1028 C   0  0  0
  -35.1459    5.1363   70.1875 H   0  0  0
  -34.9983    3.9214   68.4373 C   0  0  0
  -35.0479    3.8982   67.0496 C   0  0  0
  -34.9376    2.9794   66.4849 H   0  0  0
  -35.2412    5.0775   66.3543 C   0  0  0
  -35.2689    5.0477   65.2702 H   0  0  0
  -34.7756    2.8071   69.2523 O   0  0  0
  -34.4312    1.6210   68.5296 C   0  0  0
  -35.2925    1.2481   67.9689 H   0  0  0
  -34.1532    0.8554   69.2584 H   0  0  0
  -33.5659    1.7861   67.8790 H   0  0  0
  -34.1919    8.0435   65.6395 C   0  0  0
  -34.3760    8.7408   64.8155 H   0  0  0
  -33.6197    7.2035   65.2326 H   0  0  0
  -33.3683    8.6993   66.6432 N   0  0  0
  -33.0241    8.1371   67.4200 H   0  0  0
  -33.2048   10.0682   66.6769 C   0  0  0
  -33.3956   10.8240   65.7349 O   0  0  0
  -32.8463   10.5848   68.0215 C   0  0  0
  -33.2297   11.8408   68.2939 C   0  0  0
  -33.7321   12.4633   67.5593 H   0  0  0
  -33.0420   12.4026   69.5912 C   0  0  0
  -33.4004   13.4084   69.7587 H   0  0  0
  -32.4615   11.6898   70.5590 C   0  0  0
  -32.2366   12.2146   71.9414 C   0  0  0
  -31.1679   12.3546   72.1307 H   0  0  0
  -32.6325   11.5179   72.6865 H   0  0  0
  -32.7417   13.1730   72.0938 H   0  0  0
  -32.0497   10.4083   70.3004 N   0  0  0
  -31.6080    9.8744   71.0400 H   0  0  0
  -32.2050    9.7736   69.0911 C   0  0  0
  -31.8541    8.6192   68.8964 O   0  0  0
  2  1  1
  3  2  1
  3  4  1
  3  5  1
  3 20  1
  5  6  2
  5 13  1
  6  7  1
  6  8  1
  8  9  1
  8 10  2
 10 11  1
 10 15  1
 11 12  1
 11 13  2
 13 14  1
 15 16  1
 16 17  1
 16 18  1
 16 19  1
 20 21  1
 20 22  1
 20 23  1
 23 24  1
 23 25  1
 25 26  2
 25 27  1
 27 28  2
 27 39  1
 28 29  1
 28 30  1
 30 31  1
 30 32  2
 32 33  1
 32 37  1
 33 34  1
 33 35  1
 33 36  1
 37 38  1
 37 39  1
 39 40  2
M  ZZC   1 h1
M  ZZC   2 o4
M  ZZC   3 c9
M  ZZC   4 h17
M  ZZC   5 c10
M  ZZC   6 c11
M  ZZC   7 h8
M  ZZC   8 c12
M  ZZC   9 h7
M  ZZC  10 c13
M  ZZC  11 c14
M  ZZC  12 h6
M  ZZC  13 c15
M  ZZC  14 h5
M  ZZC  15 o3
M  ZZC  16 c16
M  ZZC  17 h2
M  ZZC  18 h3
M  ZZC  19 h4
M  ZZC  20 c8
M  ZZC  21 h10
M  ZZC  22 h9
M  ZZC  23 n2
M  ZZC  24 h11
M  ZZC  25 c7
M  ZZC  26 o2
M  ZZC  27 c5
M  ZZC  28 c4
M  ZZC  29 h12
M  ZZC  30 c3
M  ZZC  31 h13
M  ZZC  32 c2
M  ZZC  33 c1
M  ZZC  34 h14
M  ZZC  35 h15
M  ZZC  36 h16
M  ZZC  37 n1
M  ZZC  38 h18
M  ZZC  39 c6
M  ZZC  40 o1
M  ZZM   1 21
M  ZZI   1 20
M  ZZM   2 6
M  ZZI   2 60
M  ZZM   3 1
M  ZZI   3 113
M  ZZM   4 5
M  ZZI   4 1
M  ZZM   5 37
M  ZZI   5 124
M  ZZM   6 37
M  ZZI   6 125
M  ZZM   7 5
M  ZZI   7 1
M  ZZM   8 37
M  ZZI   8 125
M  ZZM   9 5
M  ZZI   9 1
M  ZZM  10 37
M  ZZI  10 124
M  ZZM  11 37
M  ZZI  11 125
M  ZZM  12 5
M  ZZI  12 1
M  ZZM  13 37
M  ZZI  13 125
M  ZZM  14 5
M  ZZI  14 1
M  ZZM  15 6
M  ZZI  15 59
M  ZZM  16 1
M  ZZI  16 111
M  ZZM  17 5
M  ZZI  17 1
M  ZZM  18 5
M  ZZI  18 1
M  ZZM  19 5
M  ZZI  19 1
M  ZZM  20 1
M  ZZI  20 112
M  ZZM  21 5
M  ZZI  21 1
M  ZZM  22 5
M  ZZI  22 1
M  ZZM  23 10
M  ZZI  23 211
M  ZZM  24 28
M  ZZI  24 11
M  ZZM  25 3
M  ZZI  25 121
M  ZZM  26 7
M  ZZI  26 81
M  ZZM  27 2
M  ZZI  27 120
M  ZZM  28 2
M  ZZI  28 120
M  ZZM  29 5
M  ZZI  29 1
M  ZZM  30 2
M  ZZI  30 120
M  ZZM  31 5
M  ZZI  31 1
M  ZZM  32 2
M  ZZI  32 120
M  ZZM  33 1
M  ZZI  33 111
M  ZZM  34 5
M  ZZI  34 1
M  ZZM  35 5
M  ZZI  35 1
M  ZZM  36 5
M  ZZI  36 1
M  ZZM  37 10
M  ZZI  37 191
M  ZZM  38 28
M  ZZI  38 11
M  ZZM  39 3
M  ZZI  39 121
M  ZZM  40 7
M  ZZI  40 81
M  END
> <NAME>
Z647909900

> <Score>
-27.392359

> <Natom>
40

> <Nflex>
4

> <Hbond>
-4.67378

> <Hphob>
-6.210047

> <VwInt>
-26.710223

> <Eintl>
6.5309

> <Dsolv>
11.920738

> <SolEl>
6.004101

> <mfScore>
-83.491413

> <RecConf>
1

> <molLogP>
0.862212

$$$$
Z1550098593
  MOLSOFT 11211612053D

 40 41  0  0  1  0  0  0  0  0999 V2000
  -35.7940    6.2338   70.2835 Cl  0  0  0
  -35.5133    5.0267   69.0750 C   0  0  0
  -35.3408    5.3778   67.7351 C   0  0  0
  -35.0885    4.3572   66.8200 C   0  0  0
  -34.9204    4.5684   65.7698 H   0  0  0
  -35.0591    3.0378   67.2151 C   0  0  0
  -34.8752    2.2604   66.4807 H   0  0  0
  -35.2664    2.7250   68.5402 C   0  0  0
  -35.4669    3.7066   69.4800 C   0  0  0
  -35.6124    3.4357   70.5208 H   0  0  0
  -35.2862    1.4084   68.9475 O   0  0  0
  -35.5579    0.8895   68.1691 H   0  0  0
  -35.3920    6.8288   67.3086 C   0  0  0
  -36.3132    7.2926   67.6765 H   0  0  0
  -34.5498    7.3412   67.7764 H   0  0  0
  -35.3914    7.0418   65.8015 C   0  0  0
  -36.2554    6.5329   65.1036 O   0  0  0
  -34.3625    7.8011   65.2572 N   0  0  0
  -33.3899    8.6348   65.9497 C   0  0  1
  -32.8716    8.0070   66.6831 H   0  0  0
  -32.4163    9.0576   64.8487 C   0  0  0
  -31.3799    9.0759   65.1993 H   0  0  0
  -32.6627   10.0488   64.4549 H   0  0  0
  -32.6216    8.0398   63.7536 C   0  0  0
  -32.0574    7.1352   63.9940 H   0  0  0
  -32.3086    8.3941   62.7666 H   0  0  0
  -34.1011    7.7649   63.8389 C   0  0  0
  -34.3788    6.8037   63.3973 H   0  0  0
  -34.6865    8.5596   63.3666 H   0  0  0
  -34.0584    9.8403   66.6378 C   0  0  0
  -34.5006   10.4887   65.8727 H   0  0  0
  -34.8927    9.5052   67.2604 H   0  0  0
  -33.0908   10.6444   67.5037 C   0  0  2
  -32.5503    9.9768   68.1830 H   0  0  0
  -33.8178   11.7106   68.3058 C   0  0  0
  -34.2808   12.4445   67.6408 H   0  0  0
  -33.1184   12.2628   68.9406 H   0  0  0
  -34.5920   11.2702   68.9389 H   0  0  0
  -32.1408   11.2909   66.6686 O   0  0  0
  -31.5156   11.7559   67.2545 H   0  0  0
  2  1  1
  2  3  1
  2  9  2
  3  4  2
  3 13  1
  4  5  1
  4  6  1
  6  7  1
  6  8  2
  8  9  1
  8 11  1
  9 10  1
 11 12  1
 13 14  1
 13 15  1
 13 16  1
 16 17  2
 16 18  1
 19 18  1
 18 27  1
 19 20  1
 19 21  1
 19 30  1
 21 22  1
 21 23  1
 21 24  1
 24 25  1
 24 26  1
 24 27  1
 27 28  1
 27 29  1
 30 31  1
 30 32  1
 33 30  1
 33 34  1
 33 35  1
 33 39  1
 35 36  1
 35 37  1
 35 38  1
 39 40  1
M  ZZC   1 &Cl1
M  ZZC   2 c15
M  ZZC   3 c10
M  ZZC   4 c11
M  ZZC   5 h5
M  ZZC   6 c12
M  ZZC   7 h4
M  ZZC   8 c13
M  ZZC   9 c14
M  ZZC  10 h3
M  ZZC  11 o2
M  ZZC  12 h2
M  ZZC  13 c9
M  ZZC  14 h6
M  ZZC  15 h7
M  ZZC  16 c8
M  ZZC  17 o1
M  ZZC  18 n1
M  ZZC  19 c4
M  ZZC  20 h19
M  ZZC  21 c5
M  ZZC  22 h12
M  ZZC  23 h13
M  ZZC  24 c6
M  ZZC  25 h10
M  ZZC  26 h11
M  ZZC  27 c7
M  ZZC  28 h8
M  ZZC  29 h9
M  ZZC  30 c3
M  ZZC  31 h14
M  ZZC  32 h15
M  ZZC  33 c2
M  ZZC  34 h20
M  ZZC  35 c1
M  ZZC  36 h16
M  ZZC  37 h17
M  ZZC  38 h18
M  ZZC  39 o3
M  ZZC  40 h1
M  ZZM   1 12
M  ZZI   1 92
M  ZZM   2 37
M  ZZI   2 124
M  ZZM   3 37
M  ZZI   3 124
M  ZZM   4 37
M  ZZI   4 125
M  ZZM   5 5
M  ZZI   5 1
M  ZZM   6 37
M  ZZI   6 125
M  ZZM   7 5
M  ZZI   7 1
M  ZZM   8 37
M  ZZI   8 124
M  ZZM   9 37
M  ZZI   9 125
M  ZZM  10 5
M  ZZI  10 1
M  ZZM  11 6
M  ZZI  11 62
M  ZZM  12 29
M  ZZI  12 27
M  ZZM  13 1
M  ZZI  13 112
M  ZZM  14 5
M  ZZI  14 1
M  ZZM  15 5
M  ZZI  15 1
M  ZZM  16 3
M  ZZI  16 121
M  ZZM  17 7
M  ZZI  17 81
M  ZZM  18 10
M  ZZI  18 192
M  ZZM  19 1
M  ZZI  19 113
M  ZZM  20 5
M  ZZI  20 1
M  ZZM  21 1
M  ZZI  21 112
M  ZZM  22 5
M  ZZI  22 1
M  ZZM  23 5
M  ZZI  23 1
M  ZZM  24 1
M  ZZI  24 112
M  ZZM  25 5
M  ZZI  25 1
M  ZZM  26 5
M  ZZI  26 1
M  ZZM  27 1
M  ZZI  27 112
M  ZZM  28 5
M  ZZI  28 1
M  ZZM  29 5
M  ZZI  29 1
M  ZZM  30 1
M  ZZI  30 112
M  ZZM  31 5
M  ZZI  31 1
M  ZZM  32 5
M  ZZI  32 1
M  ZZM  33 1
M  ZZI  33 113
M  ZZM  34 5
M  ZZI  34 1
M  ZZM  35 1
M  ZZI  35 111
M  ZZM  36 5
M  ZZI  36 1
M  ZZM  37 5
M  ZZI  37 1
M  ZZM  38 5
M  ZZI  38 1
M  ZZM  39 6
M  ZZI  39 60
M  ZZM  40 21
M  ZZI  40 20
M  END
> <NAME>
Z1550098593

> <Score>
-26.769183

> <Natom>
40

> <Nflex>
6

> <Hbond>
-4.932361

> <Hphob>
-6.275296

> <VwInt>
-24.829851

> <Eintl>
8.361234

> <Dsolv>
11.46957

> <SolEl>
3.851232

> <mfScore>
-87.070866

> <RecConf>
1

> <molLogP>
2.635762

$$$$
Z89322392
  MOLSOFT 11211612053D

 40 41  0  0  0  0  0  0  0  0999 V2000
  -36.9946    6.1779   68.2423 O   0  0  0
  -36.2524    6.1927   66.9947 S   0  0  0
  -36.9404    6.1776   65.7179 O   0  0  0
  -35.2562    7.6886   66.9831 C   0  0  0
  -34.4345    7.8896   65.8970 C   0  0  0
  -34.3805    7.1273   65.1283 H   0  0  0
  -33.6938    9.0538   65.8150 C   0  0  0
  -33.8153   10.0270   66.8022 C   0  0  0
  -34.6386    9.8006   67.9025 C   0  0  0
  -34.7575   10.5305   68.6948 H   0  0  0
  -35.3443    8.6188   68.0035 C   0  0  0
  -35.9626    8.4455   68.8749 H   0  0  0
  -33.0908   11.2118   66.6092 O   0  0  0
  -33.0690   12.0594   67.7644 C   0  0  0
  -32.3794   12.8798   67.5617 H   0  0  0
  -34.0554   12.4969   67.9458 H   0  0  0
  -32.6975   11.5273   68.6460 H   0  0  0
  -32.7807    9.2603   64.7607 N   0  0  0
  -32.2397   10.1159   64.7990 H   0  0  0
  -32.5569    8.3601   63.7375 C   0  0  0
  -33.1740    7.3260   63.5290 O   0  0  0
  -31.4058    8.7676   62.8744 C   0  0  0
  -31.4016    8.1937   61.9447 H   0  0  0
  -30.4803    8.5651   63.4092 H   0  0  0
  -31.4695    9.8370   62.6525 H   0  0  0
  -35.1349    4.9881   66.9698 O   0  0  0
  -34.9440    4.1444   68.0572 C   0  0  0
  -34.9989    4.5685   69.3749 C   0  0  0
  -35.2047    5.6003   69.6357 H   0  0  0
  -34.7599    3.6645   70.3900 C   0  0  0
  -34.8144    4.0024   71.4205 H   0  0  0
  -34.4378    2.3470   70.1029 C   0  0  0
  -34.1872    1.3666   71.2083 C   0  0  0
  -33.3351    0.7259   70.9640 H   0  0  0
  -35.0728    0.7441   71.3692 H   0  0  0
  -33.9495    1.8825   72.1435 H   0  0  0
  -34.3782    1.9382   68.7802 C   0  0  0
  -34.1361    0.9087   68.5338 H   0  0  0
  -34.6246    2.8359   67.7620 C   0  0  0
  -34.5706    2.5083   66.7284 H   0  0  0
  2  1  2
  2  3  2
  2  4  1
  2 26  1
  4  5  1
  4 11  2
  5  6  1
  5  7  2
  7  8  1
  7 18  1
  8  9  2
  8 13  1
  9 10  1
  9 11  1
 11 12  1
 13 14  1
 14 15  1
 14 16  1
 14 17  1
 18 19  1
 18 20  1
 20 21  2
 20 22  1
 22 23  1
 22 24  1
 22 25  1
 26 27  1
 27 28  2
 27 39  1
 28 29  1
 28 30  1
 30 31  1
 30 32  2
 32 33  1
 32 37  1
 33 34  1
 33 35  1
 33 36  1
 37 38  1
 37 39  2
 39 40  1
M  ZZC   1 o2
M  ZZC   2 s1
M  ZZC   3 o3
M  ZZC   4 c8
M  ZZC   5 c13
M  ZZC   6 h8
M  ZZC   7 c12
M  ZZC   8 c11
M  ZZC   9 c10
M  ZZC  10 h9
M  ZZC  11 c9
M  ZZC  12 h10
M  ZZC  13 o5
M  ZZC  14 c16
M  ZZC  15 h1
M  ZZC  16 h2
M  ZZC  17 h3
M  ZZC  18 n1
M  ZZC  19 h7
M  ZZC  20 c14
M  ZZC  21 o4
M  ZZC  22 c15
M  ZZC  23 h4
M  ZZC  24 h5
M  ZZC  25 h6
M  ZZC  26 o1
M  ZZC  27 c5
M  ZZC  28 c4
M  ZZC  29 h13
M  ZZC  30 c3
M  ZZC  31 h14
M  ZZC  32 c2
M  ZZC  33 c1
M  ZZC  34 h15
M  ZZC  35 h16
M  ZZC  36 h17
M  ZZC  37 c7
M  ZZC  38 h11
M  ZZC  39 c6
M  ZZC  40 h12
M  ZZM   1 32
M  ZZI   1 73
M  ZZM   2 18
M  ZZI   2 250
M  ZZM   3 32
M  ZZI   3 73
M  ZZM   4 37
M  ZZI   4 124
M  ZZM   5 37
M  ZZI   5 125
M  ZZM   6 5
M  ZZI   6 1
M  ZZM   7 37
M  ZZI   7 124
M  ZZM   8 37
M  ZZI   8 124
M  ZZM   9 37
M  ZZI   9 125
M  ZZM  10 5
M  ZZI  10 1
M  ZZM  11 37
M  ZZI  11 125
M  ZZM  12 5
M  ZZI  12 1
M  ZZM  13 6
M  ZZI  13 59
M  ZZM  14 1
M  ZZI  14 111
M  ZZM  15 5
M  ZZI  15 1
M  ZZM  16 5
M  ZZI  16 1
M  ZZM  17 5
M  ZZI  17 1
M  ZZM  18 10
M  ZZI  18 191
M  ZZM  19 28
M  ZZI  19 11
M  ZZM  20 3
M  ZZI  20 121
M  ZZM  21 7
M  ZZI  21 81
M  ZZM  22 1
M  ZZI  22 111
M  ZZM  23 5
M  ZZI  23 1
M  ZZM  24 5
M  ZZI  24 1
M  ZZM  25 5
M  ZZI  25 1
M  ZZM  26 6
M  ZZI  26 59
M  ZZM  27 37
M  ZZI  27 124
M  ZZM  28 37
M  ZZI  28 125
M  ZZM  29 5
M  ZZI  29 1
M  ZZM  30 37
M  ZZI  30 125
M  ZZM  31 5
M  ZZI  31 1
M  ZZM  32 37
M  ZZI  32 124
M  ZZM  33 1
M  ZZI  33 111
M  ZZM  34 5
M  ZZI  34 1
M  ZZM  35 5
M  ZZI  35 1
M  ZZM  36 5
M  ZZI  36 1
M  ZZM  37 37
M  ZZI  37 125
M  ZZM  38 5
M  ZZI  38 1
M  ZZM  39 37
M  ZZI  39 125
M  ZZM  40 5
M  ZZI  40 1
M  END
> <NAME>
Z89322392

> <Score>
-26.662496

> <Natom>
40

> <Nflex>
2

> <Hbond>
-2.13994

> <Hphob>
-6.425417

> <VwInt>
-26.332388

> <Eintl>
9.65078

> <Dsolv>
7.431972

> <SolEl>
3.962106

> <mfScore>
-85.771994

> <RecConf>
1

> <molLogP>
2.644972

$$$$
Z217921334
  MOLSOFT 11211612053D

 40 41  0  0  0  0  0  0  0  0999 V2000
  -34.8036    3.9247   70.6460 F   0  0  0
  -35.0211    4.1998   69.3498 C   0  0  0
  -34.8991    3.1916   68.4111 C   0  0  0
  -34.5253    1.8021   68.8302 C   0  0  0
  -35.3150    1.3618   69.4470 H   0  0  0
  -34.3731    1.1586   67.9597 H   0  0  0
  -33.5879    1.8148   69.3938 H   0  0  0
  -35.1474    3.4983   67.0840 C   0  0  0
  -35.0723    2.7298   66.3198 H   0  0  0
  -35.4922    4.7848   66.7160 C   0  0  0
  -35.6644    4.9789   65.6647 H   0  0  0
  -35.5882    5.7951   67.6654 C   0  0  0
  -35.3496    5.4896   68.9921 C   0  0  0
  -35.4173    6.2510   69.7618 H   0  0  0
  -35.8961    7.1378   67.3408 N   0  0  0
  -35.8490    7.8170   68.0957 H   0  0  0
  -36.2156    7.6041   66.0747 C   0  0  0
  -36.3821    6.9133   65.0809 O   0  0  0
  -36.3847    9.1082   66.0059 C   0  0  0
  -36.3646    9.4533   64.9688 H   0  0  0
  -37.3806    9.3436   66.3901 H   0  0  0
  -35.4320    9.8364   66.7995 O   0  0  0
  -34.0923    9.5926   66.4768 C   0  0  0
  -33.1496    9.8773   67.4546 C   0  0  0
  -33.5856   10.4166   68.7654 C   0  0  0
  -34.5498    9.9466   69.3503 O   0  0  0
  -32.8341   11.4527   69.2568 N   0  0  0
  -33.0903   11.8683   70.1443 H   0  0  0
  -32.0484   11.8673   68.7646 H   0  0  0
  -31.8088    9.6083   67.2339 C   0  0  0
  -31.0682    9.7845   68.0082 H   0  0  0
  -31.4109    9.0733   66.0258 C   0  0  0
  -30.3597    8.8518   65.8651 H   0  0  0
  -32.3324    8.8269   65.0206 C   0  0  0
  -31.8772    8.3245   63.6828 C   0  0  0
  -32.6602    7.7272   63.2048 H   0  0  0
  -31.6233    9.1608   63.0249 H   0  0  0
  -31.0005    7.6800   63.7922 H   0  0  0
  -33.6724    9.1027   65.2439 C   0  0  0
  -34.3733    8.9261   64.4357 H   0  0  0
  2  1  1
  2  3  1
  2 13  2
  3  4  1
  3  8  2
  4  5  1
  4  6  1
  4  7  1
  8  9  1
  8 10  1
 10 11  1
 10 12  2
 12 13  1
 12 15  1
 13 14  1
 15 16  1
 15 17  1
 17 18  2
 17 19  1
 19 20  1
 19 21  1
 19 22  1
 22 23  1
 23 24  1
 23 39  2
 24 25  1
 24 30  2
 25 26  2
 25 27  1
 27 28  1
 27 29  1
 30 31  1
 30 32  1
 32 33  1
 32 34  2
 34 35  1
 34 39  1
 35 36  1
 35 37  1
 35 38  1
 39 40  1
M  ZZC   1 f1
M  ZZC   2 c14
M  ZZC   3 c13
M  ZZC   4 c16
M  ZZC   5 h3
M  ZZC   6 h4
M  ZZC   7 h5
M  ZZC   8 c12
M  ZZC   9 h7
M  ZZC  10 c11
M  ZZC  11 h8
M  ZZC  12 c10
M  ZZC  13 c15
M  ZZC  14 h6
M  ZZC  15 n1
M  ZZC  16 h9
M  ZZC  17 c9
M  ZZC  18 o2
M  ZZC  19 c8
M  ZZC  20 h10
M  ZZC  21 h11
M  ZZC  22 o1
M  ZZC  23 c6
M  ZZC  24 c5
M  ZZC  25 c17
M  ZZC  26 o3
M  ZZC  27 n2
M  ZZC  28 h1
M  ZZC  29 h2
M  ZZC  30 c4
M  ZZC  31 h13
M  ZZC  32 c3
M  ZZC  33 h14
M  ZZC  34 c2
M  ZZC  35 c1
M  ZZC  36 h15
M  ZZC  37 h16
M  ZZC  38 h17
M  ZZC  39 c7
M  ZZC  40 h12
M  ZZM   1 11
M  ZZI   1 90
M  ZZM   2 37
M  ZZI   2 124
M  ZZM   3 37
M  ZZI   3 124
M  ZZM   4 1
M  ZZI   4 111
M  ZZM   5 5
M  ZZI   5 1
M  ZZM   6 5
M  ZZI   6 1
M  ZZM   7 5
M  ZZI   7 1
M  ZZM   8 37
M  ZZI   8 125
M  ZZM   9 5
M  ZZI   9 1
M  ZZM  10 37
M  ZZI  10 125
M  ZZM  11 5
M  ZZI  11 1
M  ZZM  12 37
M  ZZI  12 124
M  ZZM  13 37
M  ZZI  13 125
M  ZZM  14 5
M  ZZI  14 1
M  ZZM  15 10
M  ZZI  15 191
M  ZZM  16 28
M  ZZI  16 11
M  ZZM  17 3
M  ZZI  17 121
M  ZZM  18 7
M  ZZI  18 81
M  ZZM  19 1
M  ZZI  19 112
M  ZZM  20 5
M  ZZI  20 1
M  ZZM  21 5
M  ZZI  21 1
M  ZZM  22 6
M  ZZI  22 59
M  ZZM  23 37
M  ZZI  23 124
M  ZZM  24 37
M  ZZI  24 124
M  ZZM  25 3
M  ZZI  25 121
M  ZZM  26 7
M  ZZI  26 81
M  ZZM  27 10
M  ZZI  27 212
M  ZZM  28 28
M  ZZI  28 11
M  ZZM  29 28
M  ZZI  29 11
M  ZZM  30 37
M  ZZI  30 125
M  ZZM  31 5
M  ZZI  31 1
M  ZZM  32 37
M  ZZI  32 125
M  ZZM  33 5
M  ZZI  33 1
M  ZZM  34 37
M  ZZI  34 124
M  ZZM  35 1
M  ZZI  35 111
M  ZZM  36 5
M  ZZI  36 1
M  ZZM  37 5
M  ZZI  37 1
M  ZZM  38 5
M  ZZI  38 1
M  ZZM  39 37
M  ZZI  39 125
M  ZZM  40 5
M  ZZI  40 1
M  END
> <NAME>
Z217921334

> <Score>
-26.095819

> <Natom>
40

> <Nflex>
2

> <Hbond>
-2.279035

> <Hphob>
-6.74821

> <VwInt>
-28.228487

> <Eintl>
4.239013

> <Dsolv>
10.235704

> <SolEl>
5.36841

> <mfScore>
-100.170561

> <RecConf>
1

> <molLogP>
2.474652

$$$$
Z24585386
  MOLSOFT 11211612053D

 40 42  0  0  0  0  0  0  0  0999 V2000
  -33.7381    1.1171   68.3918 O   0  0  0
  -34.5140    1.8199   69.3920 S   0  0  0
  -34.0661    1.9469   70.7637 O   0  0  0
  -36.0676    1.1879   69.4061 N   0  0  0
  -36.3390    0.6619   68.5718 H   0  0  0
  -36.4375    0.8723   70.3084 H   0  0  0
  -34.8750    3.4654   68.7688 C   0  0  0
  -35.0531    3.6328   67.4067 C   0  0  0
  -34.9673    2.7975   66.7166 H   0  0  0
  -35.3690    4.8834   66.9225 C   0  0  0
  -35.5058    4.9920   65.8536 H   0  0  0
  -35.4864    5.9627   67.7905 C   0  0  0
  -35.2728    5.7804   69.1479 C   0  0  0
  -35.3551    6.6151   69.8365 H   0  0  0
  -34.9746    4.5297   69.6487 C   0  0  0
  -34.8303    4.3989   70.7173 H   0  0  0
  -35.8030    7.2673   67.3467 N   0  0  0
  -35.7505    8.0054   68.0422 H   0  0  0
  -36.1856    7.5880   66.0532 C   0  0  0
  -36.3652    6.7911   65.1453 O   0  0  0
  -36.3582    9.0668   65.8236 C   0  0  0
  -37.2534    9.2238   65.2161 H   0  0  0
  -36.5151    9.5973   66.7659 H   0  0  0
  -34.9022    9.6791   64.9177 S   0  0  0
  -34.0165   10.4304   66.2037 C   0  0  0
  -33.0722   11.3213   66.0093 N   0  0  0
  -32.6515   11.7222   67.2513 N   0  0  0
  -33.3486   11.0169   68.1111 C   0  0  0
  -34.2354   10.1852   67.5152 O   0  0  0
  -33.2893   10.9919   69.5547 C   0  0  0
  -33.9146    9.9984   70.2922 C   0  0  0
  -34.6268    9.0361   69.6821 F   0  0  0
  -33.8142    9.9646   71.6636 C   0  0  0
  -34.3056    9.1765   72.2246 H   0  0  0
  -33.0877   10.9390   72.3129 C   0  0  0
  -33.0005   10.9182   73.3891 H   0  0  0
  -32.4706   11.9424   71.5983 C   0  0  0
  -31.9016   12.7082   72.1167 H   0  0  0
  -32.5695   11.9679   70.2244 C   0  0  0
  -32.0717   12.7590   69.6723 H   0  0  0
  2  1  2
  2  3  2
  2  4  1
  2  7  1
  4  5  1
  4  6  1
  7  8  2
  7 15  1
  8  9  1
  8 10  1
 10 11  1
 10 12  2
 12 13  1
 12 17  1
 13 14  1
 13 15  2
 15 16  1
 17 18  1
 17 19  1
 19 20  2
 19 21  1
 21 22  1
 21 23  1
 21 24  1
 24 25  1
 25 26  2
 25 29  1
 26 27  1
 27 28  2
 28 29  1
 28 30  1
 30 31  2
 30 39  1
 31 32  1
 31 33  1
 33 34  1
 33 35  2
 35 36  1
 35 37  1
 37 38  1
 37 39  2
 39 40  1
M  ZZC   1 o3
M  ZZC   2 s2
M  ZZC   3 o4
M  ZZC   4 n4
M  ZZC   5 h1
M  ZZC   6 h2
M  ZZC   7 c14
M  ZZC   8 c13
M  ZZC   9 h5
M  ZZC  10 c12
M  ZZC  11 h6
M  ZZC  12 c11
M  ZZC  13 c16
M  ZZC  14 h3
M  ZZC  15 c15
M  ZZC  16 h4
M  ZZC  17 n3
M  ZZC  18 h7
M  ZZC  19 c10
M  ZZC  20 o2
M  ZZC  21 c9
M  ZZC  22 h8
M  ZZC  23 h9
M  ZZC  24 s1
M  ZZC  25 c8
M  ZZC  26 n2
M  ZZC  27 n1
M  ZZC  28 c7
M  ZZC  29 o1
M  ZZC  30 c5
M  ZZC  31 c4
M  ZZC  32 f1
M  ZZC  33 c3
M  ZZC  34 h11
M  ZZC  35 c2
M  ZZC  36 h12
M  ZZC  37 c1
M  ZZC  38 h13
M  ZZC  39 c6
M  ZZC  40 h10
M  ZZM   1 32
M  ZZI   1 73
M  ZZM   2 18
M  ZZI   2 250
M  ZZM   3 32
M  ZZI   3 73
M  ZZM   4 43
M  ZZI   4 226
M  ZZM   5 28
M  ZZI   5 11
M  ZZM   6 28
M  ZZI   6 11
M  ZZM   7 37
M  ZZI   7 124
M  ZZM   8 37
M  ZZI   8 125
M  ZZM   9 5
M  ZZI   9 1
M  ZZM  10 37
M  ZZI  10 125
M  ZZM  11 5
M  ZZI  11 1
M  ZZM  12 37
M  ZZI  12 124
M  ZZM  13 37
M  ZZI  13 125
M  ZZM  14 5
M  ZZI  14 1
M  ZZM  15 37
M  ZZI  15 125
M  ZZM  16 5
M  ZZI  16 1
M  ZZM  17 10
M  ZZI  17 191
M  ZZM  18 28
M  ZZI  18 11
M  ZZM  19 3
M  ZZI  19 121
M  ZZM  20 7
M  ZZI  20 81
M  ZZM  21 1
M  ZZI  21 112
M  ZZM  22 5
M  ZZI  22 1
M  ZZM  23 5
M  ZZI  23 1
M  ZZM  24 15
M  ZZI  24 240
M  ZZM  25 63
M  ZZI  25 104
M  ZZM  26 66
M  ZZI  26 222
M  ZZM  27 66
M  ZZI  27 222
M  ZZM  28 63
M  ZZI  28 104
M  ZZM  29 59
M  ZZI  29 56
M  ZZM  30 37
M  ZZI  30 124
M  ZZM  31 37
M  ZZI  31 124
M  ZZM  32 11
M  ZZI  32 90
M  ZZM  33 37
M  ZZI  33 125
M  ZZM  34 5
M  ZZI  34 1
M  ZZM  35 37
M  ZZI  35 125
M  ZZM  36 5
M  ZZI  36 1
M  ZZM  37 37
M  ZZI  37 125
M  ZZM  38 5
M  ZZI  38 1
M  ZZM  39 37
M  ZZI  39 125
M  ZZM  40 5
M  ZZI  40 1
M  END
> <NAME>
Z24585386

> <Score>
-26.09079

> <Natom>
40

> <Nflex>
4

> <Hbond>
-4.633193

> <Hphob>
-5.037502

> <VwInt>
-29.925887

> <Eintl>
5.326359

> <Dsolv>
15.643688

> <SolEl>
7.271872

> <mfScore>
-61.910852

> <RecConf>
1

> <molLogP>
1.874028

$$$$
Z910722708
  MOLSOFT 11211612053D

 40 41  0  0  1  0  0  0  0  0999 V2000
  -31.0665    9.4063   68.1742 H   0  0  0
  -31.5215    9.0595   68.9620 O   0  0  0
  -32.0340   10.2201   69.5522 N   0  0  0
  -31.7117   10.3974   70.8658 C   0  0  0
  -31.0792    9.6410   71.3598 H   0  0  0
  -32.2420   11.5868   71.5188 C   0  0  0
  -32.0245   11.7671   72.5652 H   0  0  0
  -32.9992   12.4400   70.8094 C   0  0  0
  -33.4018   13.3132   71.3104 H   0  0  0
  -33.2824   12.2426   69.5096 C   0  0  0
  -33.9056   12.9550   68.9790 H   0  0  0
  -32.8132   11.1465   68.8945 C   0  0  0
  -33.2445   10.9082   67.4867 C   0  0  0
  -33.1382   11.7582   66.6140 O   0  0  0
  -33.7873    9.6554   67.3137 N   0  0  0
  -33.8340    9.0393   68.1198 H   0  0  0
  -34.3980    9.2538   66.0650 C   0  0  0
  -35.3988    9.6988   66.0291 H   0  0  0
  -33.8274    9.7110   65.2502 H   0  0  0
  -34.4690    7.7314   65.9294 C   0  0  2
  -33.4905    7.2982   66.1677 H   0  0  0
  -34.7780    7.4366   64.4773 C   0  0  0
  -35.8599    7.0103   64.1125 O   0  0  0
  -33.7554    7.6989   63.6042 N   0  0  0
  -33.9051    7.5870   62.6059 H   0  0  0
  -32.8333    7.9993   63.9000 H   0  0  0
  -35.5588    7.1490   66.8566 C   0  0  0
  -36.5494    7.1766   66.3899 H   0  0  0
  -35.6542    7.7708   67.7517 H   0  0  0
  -35.2821    5.7348   67.3096 C   0  0  0
  -35.2469    4.6745   66.4110 C   0  0  0
  -35.4279    4.8406   65.3560 H   0  0  0
  -34.9879    3.3888   66.8407 C   0  0  0
  -34.9527    2.5663   66.1348 H   0  0  0
  -34.7821    3.1514   68.1793 C   0  0  0
  -34.5242    1.9034   68.6010 F   0  0  0
  -34.8401    4.1775   69.0931 C   0  0  0
  -34.6860    3.9702   70.1465 H   0  0  0
  -35.0866    5.4658   68.6592 C   0  0  0
  -35.1233    6.2668   69.3917 H   0  0  0
  2  1  1
  2  3  1
  3  4  2
  3 12  1
  4  5  1
  4  6  1
  6  7  1
  6  8  2
  8  9  1
  8 10  1
 10 11  1
 10 12  2
 12 13  1
 13 14  2
 13 15  1
 15 16  1
 15 17  1
 17 18  1
 17 19  1
 20 17  1
 20 21  1
 20 22  1
 20 27  1
 22 23  2
 22 24  1
 24 25  1
 24 26  1
 27 28  1
 27 29  1
 27 30  1
 30 31  2
 30 39  1
 31 32  1
 31 33  1
 33 34  1
 33 35  2
 35 36  1
 35 37  1
 37 38  1
 37 39  2
 39 40  1
M  ZZC   1 h01
M  ZZC   2 o1
M  ZZC   3 n1
M  ZZC   4 c3
M  ZZC   5 h13
M  ZZC   6 c2
M  ZZC   7 h14
M  ZZC   8 c1
M  ZZC   9 h15
M  ZZC  10 c5
M  ZZC  11 h12
M  ZZC  12 c4
M  ZZC  13 c6
M  ZZC  14 o2
M  ZZC  15 n2
M  ZZC  16 h11
M  ZZC  17 c7
M  ZZC  18 h10
M  ZZC  19 h9
M  ZZC  20 c8
M  ZZC  21 h16
M  ZZC  22 c16
M  ZZC  23 o3
M  ZZC  24 n3
M  ZZC  25 h1
M  ZZC  26 h2
M  ZZC  27 c9
M  ZZC  28 h7
M  ZZC  29 h8
M  ZZC  30 c10
M  ZZC  31 c11
M  ZZC  32 h6
M  ZZC  33 c12
M  ZZC  34 h5
M  ZZC  35 c13
M  ZZC  36 f1
M  ZZC  37 c14
M  ZZC  38 h4
M  ZZC  39 c15
M  ZZC  40 h3
M  ZZM   1 21
M  ZZI   1 20
M  ZZM   2 6
M  ZZI   2 60
M  ZZM   3 40
M  ZZI   3 193
M  ZZM   4 3
M  ZZI   4 121
M  ZZM   5 5
M  ZZI   5 1
M  ZZM   6 2
M  ZZI   6 120
M  ZZM   7 5
M  ZZI   7 1
M  ZZM   8 2
M  ZZI   8 120
M  ZZM   9 5
M  ZZI   9 1
M  ZZM  10 2
M  ZZI  10 120
M  ZZM  11 5
M  ZZI  11 1
M  ZZM  12 2
M  ZZI  12 120
M  ZZM  13 3
M  ZZI  13 121
M  ZZM  14 7
M  ZZI  14 81
M  ZZM  15 10
M  ZZI  15 211
M  ZZM  16 28
M  ZZI  16 11
M  ZZM  17 1
M  ZZI  17 112
M  ZZM  18 5
M  ZZI  18 1
M  ZZM  19 5
M  ZZI  19 1
M  ZZM  20 1
M  ZZI  20 113
M  ZZM  21 5
M  ZZI  21 1
M  ZZM  22 3
M  ZZI  22 121
M  ZZM  23 7
M  ZZI  23 81
M  ZZM  24 10
M  ZZI  24 212
M  ZZM  25 28
M  ZZI  25 11
M  ZZM  26 28
M  ZZI  26 11
M  ZZM  27 1
M  ZZI  27 112
M  ZZM  28 5
M  ZZI  28 1
M  ZZM  29 5
M  ZZI  29 1
M  ZZM  30 37
M  ZZI  30 124
M  ZZM  31 37
M  ZZI  31 125
M  ZZM  32 5
M  ZZI  32 1
M  ZZM  33 37
M  ZZI  33 125
M  ZZM  34 5
M  ZZI  34 1
M  ZZM  35 37
M  ZZI  35 124
M  ZZM  36 11
M  ZZI  36 90
M  ZZM  37 37
M  ZZI  37 125
M  ZZM  38 5
M  ZZI  38 1
M  ZZM  39 37
M  ZZI  39 125
M  ZZM  40 5
M  ZZI  40 1
M  END
> <NAME>
Z910722708

> <Score>
-25.15157

> <Natom>
40

> <Nflex>
6

> <Hbond>
-5.398044

> <Hphob>
-5.072635

> <VwInt>
-28.603056

> <Eintl>
8.603252

> <Dsolv>
15.853322

> <SolEl>
7.601836

> <mfScore>
-76.159946

> <RecConf>
1

> <molLogP>
1.124132

$$$$
Z973017742
  MOLSOFT 11211612053D

 40 40  0  0  0  0  0  0  0  0999 V2000
  -36.1700    7.4015   65.3750 O   0  0  0
  -35.5428    7.8118   66.6188 S   0  0  0
  -36.1929    8.7773   67.4791 O   0  0  0
  -33.9456    8.3742   66.2812 N   0  0  0
  -33.1968    7.7034   65.1734 C   0  0  0
  -33.4540    6.6446   65.1081 H   0  0  0
  -32.1146    7.7712   65.3177 H   0  0  0
  -33.5718    8.3858   63.8741 C   0  0  0
  -34.2181    9.4194   63.8068 O   0  0  0
  -33.1173    7.7356   62.7629 N   0  0  0
  -33.3583    8.1051   61.8539 H   0  0  0
  -32.5394    6.9044   62.7854 H   0  0  0
  -33.1052    8.9242   67.3928 C   0  0  0
  -32.4544    8.1301   67.7711 H   0  0  0
  -33.7531    9.2393   68.2119 H   0  0  0
  -32.2630   10.1212   66.9268 C   0  0  0
  -31.6634    9.8505   66.0549 H   0  0  0
  -31.5601   10.4109   67.7137 H   0  0  0
  -33.0504   11.2670   66.5548 O   0  0  0
  -33.5453   11.9802   67.6936 C   0  0  0
  -34.2629   11.3418   68.2077 H   0  0  0
  -34.0600   12.8951   67.3859 H   0  0  0
  -32.7354   12.2161   68.3888 H   0  0  0
  -35.2483    6.2881   67.5697 C   0  0  0
  -35.1826    6.2496   68.9711 C   0  0  0
  -35.1747    7.4478   69.8800 C   0  0  0
  -34.1448    7.7460   70.0978 H   0  0  0
  -35.6699    7.2115   70.8268 H   0  0  0
  -35.7014    8.3027   69.4628 H   0  0  0
  -35.0153    5.0079   69.5677 C   0  0  0
  -34.9465    4.9322   70.6490 H   0  0  0
  -34.8848    3.8547   68.8233 C   0  0  0
  -34.7198    2.9100   69.3327 H   0  0  0
  -34.9464    3.9001   67.4449 C   0  0  0
  -34.7321    2.6664   66.6252 C   0  0  0
  -33.7293    2.6689   66.1882 H   0  0  0
  -35.4655    2.6178   65.8180 H   0  0  0
  -34.8362    1.7681   67.2397 H   0  0  0
  -35.1607    5.1161   66.8270 C   0  0  0
  -35.2296    5.1405   65.7435 H   0  0  0
  2  1  2
  2  3  2
  2  4  1
  2 24  1
  4  5  1
  4 13  1
  5  6  1
  5  7  1
  5  8  1
  8  9  2
  8 10  1
 10 11  1
 10 12  1
 13 14  1
 13 15  1
 13 16  1
 16 17  1
 16 18  1
 16 19  1
 19 20  1
 20 21  1
 20 22  1
 20 23  1
 24 25  1
 24 39  2
 25 26  1
 25 30  2
 26 27  1
 26 28  1
 26 29  1
 30 31  1
 30 32  1
 32 33  1
 32 34  2
 34 35  1
 34 39  1
 35 36  1
 35 37  1
 35 38  1
 39 40  1
M  ZZC   1 o1
M  ZZC   2 s1
M  ZZC   3 o2
M  ZZC   4 n1
M  ZZC   5 c11
M  ZZC   6 h6
M  ZZC   7 h7
M  ZZC   8 c12
M  ZZC   9 o4
M  ZZC  10 n2
M  ZZC  11 h4
M  ZZC  12 h5
M  ZZC  13 c8
M  ZZC  14 h13
M  ZZC  15 h14
M  ZZC  16 c9
M  ZZC  17 h11
M  ZZC  18 h12
M  ZZC  19 o3
M  ZZC  20 c10
M  ZZC  21 h10
M  ZZC  22 h8
M  ZZC  23 h9
M  ZZC  24 c6
M  ZZC  25 c5
M  ZZC  26 c13
M  ZZC  27 h1
M  ZZC  28 h2
M  ZZC  29 h3
M  ZZC  30 c4
M  ZZC  31 h16
M  ZZC  32 c3
M  ZZC  33 h17
M  ZZC  34 c2
M  ZZC  35 c1
M  ZZC  36 h18
M  ZZC  37 h19
M  ZZC  38 h20
M  ZZC  39 c7
M  ZZC  40 h15
M  ZZM   1 32
M  ZZI   1 73
M  ZZM   2 18
M  ZZI   2 250
M  ZZM   3 32
M  ZZI   3 73
M  ZZM   4 43
M  ZZI   4 195
M  ZZM   5 1
M  ZZI   5 112
M  ZZM   6 5
M  ZZI   6 1
M  ZZM   7 5
M  ZZI   7 1
M  ZZM   8 3
M  ZZI   8 121
M  ZZM   9 7
M  ZZI   9 81
M  ZZM  10 10
M  ZZI  10 212
M  ZZM  11 28
M  ZZI  11 11
M  ZZM  12 28
M  ZZI  12 11
M  ZZM  13 1
M  ZZI  13 112
M  ZZM  14 5
M  ZZI  14 1
M  ZZM  15 5
M  ZZI  15 1
M  ZZM  16 1
M  ZZI  16 112
M  ZZM  17 5
M  ZZI  17 1
M  ZZM  18 5
M  ZZI  18 1
M  ZZM  19 6
M  ZZI  19 65
M  ZZM  20 1
M  ZZI  20 111
M  ZZM  21 5
M  ZZI  21 1
M  ZZM  22 5
M  ZZI  22 1
M  ZZM  23 5
M  ZZI  23 1
M  ZZM  24 37
M  ZZI  24 124
M  ZZM  25 37
M  ZZI  25 124
M  ZZM  26 1
M  ZZI  26 111
M  ZZM  27 5
M  ZZI  27 1
M  ZZM  28 5
M  ZZI  28 1
M  ZZM  29 5
M  ZZI  29 1
M  ZZM  30 37
M  ZZI  30 125
M  ZZM  31 5
M  ZZI  31 1
M  ZZM  32 37
M  ZZI  32 125
M  ZZM  33 5
M  ZZI  33 1
M  ZZM  34 37
M  ZZI  34 124
M  ZZM  35 1
M  ZZI  35 111
M  ZZM  36 5
M  ZZI  36 1
M  ZZM  37 5
M  ZZI  37 1
M  ZZM  38 5
M  ZZI  38 1
M  ZZM  39 37
M  ZZI  39 125
M  ZZM  40 5
M  ZZI  40 1
M  END
> <NAME>
Z973017742

> <Score>
-25.094278

> <Natom>
40

> <Nflex>
7

> <Hbond>
-6.084843

> <Hphob>
-5.676601

> <VwInt>
-23.166461

> <Eintl>
6.476369

> <Dsolv>
10.093334

> <SolEl>
8.333572

> <mfScore>
-73.905067

> <RecConf>
1

> <molLogP>
0.650063

$$$$
Z89097322
  MOLSOFT 11211612053D

 41 43  0  0  0  0  0  0  0  0999 V2000
  -34.3262    9.9421   64.7110 O   0  0  0
  -34.6775    9.8401   65.8782 C   0  0  0
  -33.8169   10.1784   66.9811 C   0  0  0
  -32.5753    9.6449   67.2817 C   0  0  0
  -31.8944    8.6002   66.4706 C   0  0  0
  -30.9477    8.2746   66.9028 H   0  0  0
  -31.6799    8.9740   65.4651 H   0  0  0
  -32.5295    7.7149   66.3742 H   0  0  0
  -32.1276   10.2454   68.5100 C   0  0  0
  -30.9065    9.9325   69.2553 C   0  0  0
  -29.9729    9.3309   68.7404 O   0  0  0
  -30.7827   10.3467   70.6982 C   0  0  0
  -30.5177   11.4051   70.7701 H   0  0  0
  -29.9892    9.7600   71.1698 H   0  0  0
  -31.7084   10.1362   71.2404 H   0  0  0
  -33.0844   11.2000   68.8426 C   0  0  0
  -33.1603   12.2167   69.9209 C   0  0  0
  -33.4157   11.7586   70.8802 H   0  0  0
  -33.9220   12.9660   69.6941 H   0  0  0
  -32.2137   12.7519   70.0227 H   0  0  0
  -34.0987   11.1225   67.9299 N   0  0  0
  -34.9145   11.7265   67.9372 H   0  0  0
  -36.0406    9.2994   66.2293 C   0  0  0
  -36.7832    9.6163   65.4891 H   0  0  0
  -36.3636    9.6380   67.2185 H   0  0  0
  -35.9987    7.8471   66.2438 N   0  0  0
  -35.6519    7.1638   67.3444 N   0  0  0
  -35.6136    5.9209   66.8459 C   0  0  0
  -35.9550    5.8736   65.5148 N   0  0  0
  -36.2182    7.1154   65.1436 N   0  0  0
  -35.2349    4.7411   67.6018 C   0  0  0
  -34.8047    3.5971   66.9427 C   0  0  0
  -34.7505    3.5646   65.8584 H   0  0  0
  -34.4141    2.4830   67.6571 C   0  0  0
  -34.0593    1.6041   67.1316 H   0  0  0
  -34.4732    2.4838   69.0341 C   0  0  0
  -34.1723    1.6001   69.5880 H   0  0  0
  -34.9149    3.6134   69.6922 C   0  0  0
  -34.9972    3.6167   71.4162 Cl  0  0  0
  -35.2867    4.7430   68.9888 C   0  0  0
  -35.6252    5.6236   69.5277 H   0  0  0
  2  1  2
  2  3  1
  2 23  1
  3  4  2
  3 21  1
  4  5  1
  4  9  1
  5  6  1
  5  7  1
  5  8  1
  9 10  1
  9 16  2
 10 11  2
 10 12  1
 12 13  1
 12 14  1
 12 15  1
 16 17  1
 16 21  1
 17 18  1
 17 19  1
 17 20  1
 21 22  1
 23 24  1
 23 25  1
 23 26  1
 26 27  1
 26 30  1
 27 28  2
 28 29  1
 28 31  1
 29 30  2
 31 32  2
 31 40  1
 32 33  1
 32 34  1
 34 35  1
 34 36  2
 36 37  1
 36 38  1
 38 39  1
 38 40  2
 40 41  1
M  ZZC   1 o1
M  ZZC   2 c6
M  ZZC   3 c5
M  ZZC   4 c2
M  ZZC   5 c1
M  ZZC   6 h13
M  ZZC   7 h14
M  ZZC   8 h15
M  ZZC   9 c3
M  ZZC  10 c16
M  ZZC  11 o2
M  ZZC  12 c17
M  ZZC  13 h1
M  ZZC  14 h2
M  ZZC  15 h3
M  ZZC  16 c4
M  ZZC  17 c15
M  ZZC  18 h4
M  ZZC  19 h5
M  ZZC  20 h6
M  ZZC  21 n1
M  ZZC  22 h16
M  ZZC  23 c7
M  ZZC  24 h11
M  ZZC  25 h12
M  ZZC  26 n2
M  ZZC  27 n3
M  ZZC  28 c8
M  ZZC  29 n4
M  ZZC  30 n5
M  ZZC  31 c9
M  ZZC  32 c10
M  ZZC  33 h10
M  ZZC  34 c11
M  ZZC  35 h9
M  ZZC  36 c12
M  ZZC  37 h8
M  ZZC  38 c13
M  ZZC  39 &Cl1
M  ZZC  40 c14
M  ZZC  41 h7
M  ZZM   1 7
M  ZZI   1 80
M  ZZM   2 3
M  ZZI   2 122
M  ZZM   3 63
M  ZZI   3 104
M  ZZM   4 64
M  ZZI   4 105
M  ZZM   5 1
M  ZZI   5 111
M  ZZM   6 5
M  ZZI   6 1
M  ZZM   7 5
M  ZZI   7 1
M  ZZM   8 5
M  ZZI   8 1
M  ZZM   9 64
M  ZZI   9 105
M  ZZM  10 3
M  ZZI  10 122
M  ZZM  11 7
M  ZZI  11 80
M  ZZM  12 1
M  ZZI  12 111
M  ZZM  13 5
M  ZZI  13 1
M  ZZM  14 5
M  ZZI  14 1
M  ZZM  15 5
M  ZZI  15 1
M  ZZM  16 63
M  ZZI  16 104
M  ZZM  17 1
M  ZZI  17 111
M  ZZM  18 5
M  ZZI  18 1
M  ZZM  19 5
M  ZZI  19 1
M  ZZM  20 5
M  ZZI  20 1
M  ZZM  21 39
M  ZZI  21 215
M  ZZM  22 23
M  ZZI  22 10
M  ZZM  23 1
M  ZZI  23 112
M  ZZM  24 5
M  ZZI  24 1
M  ZZM  25 5
M  ZZI  25 1
M  ZZM  26 39
M  ZZI  26 215
M  ZZM  27 65
M  ZZI  27 207
M  ZZM  28 64
M  ZZI  28 105
M  ZZM  29 66
M  ZZI  29 222
M  ZZM  30 65
M  ZZI  30 207
M  ZZM  31 37
M  ZZI  31 124
M  ZZM  32 37
M  ZZI  32 125
M  ZZM  33 5
M  ZZI  33 1
M  ZZM  34 37
M  ZZI  34 125
M  ZZM  35 5
M  ZZI  35 1
M  ZZM  36 37
M  ZZI  36 125
M  ZZM  37 5
M  ZZI  37 1
M  ZZM  38 37
M  ZZI  38 124
M  ZZM  39 12
M  ZZI  39 92
M  ZZM  40 37
M  ZZI  40 125
M  ZZM  41 5
M  ZZI  41 1
M  END
> <NAME>
Z89097322

> <Score>
-30.249073

> <Natom>
41

> <Nflex>
2

> <Hbond>
-5.952059

> <Hphob>
-6.747463

> <VwInt>
-30.374561

> <Eintl>
6.499464

> <Dsolv>
15.13516

> <SolEl>
10.838831

> <mfScore>
-87.976795

> <RecConf>
1

> <molLogP>
2.479716

$$$$
Z25467650
  MOLSOFT 11211612053D

 41 43  0  0  0  0  0  0  0  0999 V2000
  -30.8411    8.0171   70.6790 N   0  0  0
  -31.3999    9.0084   70.4519 C   0  0  0
  -32.0933   10.2091   70.1107 C   0  0  0
  -32.3305   10.5258   68.7762 C   0  0  0
  -33.0087   11.6974   68.4791 C   0  0  0
  -33.2240   11.9952   67.4606 H   0  0  0
  -33.4273   12.5270   69.4929 C   0  0  0
  -33.9497   13.4372   69.2378 H   0  0  0
  -33.1898   12.2118   70.8125 C   0  0  0
  -33.5305   12.8755   71.6019 H   0  0  0
  -32.5237   11.0486   71.1243 C   0  0  0
  -32.3421   10.8030   72.1670 H   0  0  0
  -31.8682    9.6437   67.7664 N   0  0  0
  -31.4066    8.7933   68.0711 H   0  0  0
  -31.9943    9.8454   66.3999 C   0  0  0
  -32.5072   10.8197   65.8637 O   0  0  0
  -31.3731    8.7052   65.6165 C   0  0  0
  -31.4396    7.7753   66.1875 H   0  0  0
  -30.3127    8.9184   65.4580 H   0  0  0
  -32.1917    8.4892   64.0099 S   0  0  0
  -33.7244    7.8958   64.5606 C   0  0  0
  -34.1429    7.7331   65.7923 N   0  0  0
  -35.4186    7.2557   65.6088 C   0  0  0
  -35.7833    7.1006   64.3274 N   0  0  0
  -34.6894    7.5418   63.6794 N   0  0  0
  -34.6609    7.5812   62.6676 H   0  0  0
  -36.3517    6.9560   66.7309 C   0  0  0
  -37.1311    6.2435   66.4407 H   0  0  0
  -36.8741    7.8851   66.9696 H   0  0  0
  -35.7176    6.5274   67.9475 O   0  0  0
  -35.3722    5.1724   67.9975 C   0  0  0
  -35.2891    4.3238   66.8969 C   0  0  0
  -35.5059    4.6553   65.8891 H   0  0  0
  -34.9003    3.0103   67.0751 C   0  0  0
  -34.8251    2.3506   66.2164 H   0  0  0
  -34.6059    2.5426   68.3407 C   0  0  0
  -34.1092    0.9039   68.5589 Cl  0  0  0
  -34.6994    3.3766   69.4358 C   0  0  0
  -34.4720    3.0082   70.4313 H   0  0  0
  -35.0785    4.6923   69.2588 C   0  0  0
  -35.1454    5.3541   70.1166 H   0  0  0
  2  1  3
  2  3  1
  3  4  2
  3 11  1
  4  5  1
  4 13  1
  5  6  1
  5  7  2
  7  8  1
  7  9  1
  9 10  1
  9 11  2
 11 12  1
 13 14  1
 13 15  1
 15 16  2
 15 17  1
 17 18  1
 17 19  1
 17 20  1
 20 21  1
 21 22  2
 21 25  1
 22 23  1
 23 24  2
 23 27  1
 24 25  1
 25 26  1
 27 28  1
 27 29  1
 27 30  1
 30 31  1
 31 32  1
 31 40  2
 32 33  1
 32 34  2
 34 35  1
 34 36  1
 36 37  1
 36 38  2
 38 39  1
 38 40  1
 40 41  1
M  ZZC   1 n1
M  ZZC   2 c7
M  ZZC   3 c5
M  ZZC   4 c4
M  ZZC   5 c3
M  ZZC   6 h11
M  ZZC   7 c2
M  ZZC   8 h12
M  ZZC   9 c1
M  ZZC  10 h13
M  ZZC  11 c6
M  ZZC  12 h10
M  ZZC  13 n2
M  ZZC  14 h9
M  ZZC  15 c8
M  ZZC  16 o1
M  ZZC  17 c9
M  ZZC  18 h7
M  ZZC  19 h8
M  ZZC  20 s1
M  ZZC  21 c10
M  ZZC  22 n3
M  ZZC  23 c11
M  ZZC  24 n4
M  ZZC  25 n5
M  ZZC  26 h14
M  ZZC  27 c12
M  ZZC  28 h5
M  ZZC  29 h6
M  ZZC  30 o2
M  ZZC  31 c13
M  ZZC  32 c14
M  ZZC  33 h4
M  ZZC  34 c15
M  ZZC  35 h3
M  ZZC  36 c16
M  ZZC  37 &Cl1
M  ZZC  38 c17
M  ZZC  39 h2
M  ZZC  40 c18
M  ZZC  41 h1
M  ZZM   1 42
M  ZZI   1 225
M  ZZM   2 4
M  ZZI   2 130
M  ZZM   3 37
M  ZZI   3 124
M  ZZM   4 37
M  ZZI   4 124
M  ZZM   5 37
M  ZZI   5 125
M  ZZM   6 5
M  ZZI   6 1
M  ZZM   7 37
M  ZZI   7 125
M  ZZM   8 5
M  ZZI   8 1
M  ZZM   9 37
M  ZZI   9 125
M  ZZM  10 5
M  ZZI  10 1
M  ZZM  11 37
M  ZZI  11 125
M  ZZM  12 5
M  ZZI  12 1
M  ZZM  13 10
M  ZZI  13 191
M  ZZM  14 28
M  ZZI  14 11
M  ZZM  15 3
M  ZZI  15 121
M  ZZM  16 7
M  ZZI  16 81
M  ZZM  17 1
M  ZZI  17 112
M  ZZM  18 5
M  ZZI  18 1
M  ZZM  19 5
M  ZZI  19 1
M  ZZM  20 15
M  ZZI  20 240
M  ZZM  21 63
M  ZZI  21 104
M  ZZM  22 66
M  ZZI  22 222
M  ZZM  23 64
M  ZZI  23 105
M  ZZM  24 65
M  ZZI  24 207
M  ZZM  25 39
M  ZZI  25 215
M  ZZM  26 23
M  ZZI  26 10
M  ZZM  27 1
M  ZZI  27 112
M  ZZM  28 5
M  ZZI  28 1
M  ZZM  29 5
M  ZZI  29 1
M  ZZM  30 6
M  ZZI  30 59
M  ZZM  31 37
M  ZZI  31 124
M  ZZM  32 37
M  ZZI  32 125
M  ZZM  33 5
M  ZZI  33 1
M  ZZM  34 37
M  ZZI  34 125
M  ZZM  35 5
M  ZZI  35 1
M  ZZM  36 37
M  ZZI  36 124
M  ZZM  37 12
M  ZZI  37 92
M  ZZM  38 37
M  ZZI  38 125
M  ZZM  39 5
M  ZZI  39 1
M  ZZM  40 37
M  ZZI  40 125
M  ZZM  41 5
M  ZZI  41 1
M  END
> <NAME>
Z25467650

> <Score>
-27.6533

> <Natom>
41

> <Nflex>
6

> <Hbond>
-6.593775

> <Hphob>
-5.814474

> <VwInt>
-30.108535

> <Eintl>
7.759577

> <Dsolv>
17.214238

> <SolEl>
9.882585

> <mfScore>
-92.092662

> <RecConf>
1

> <molLogP>
3.45459

$$$$
Z750595774
  MOLSOFT 11211612053D

 41 42  0  0  0  0  0  0  0  0999 V2000
  -30.7643    9.5764   72.0327 H   0  0  0
  -31.3701   10.3868   71.6370 C   0  0  0
  -31.5287   11.5397   72.3764 C   0  0  0
  -31.0350   11.6345   73.3350 H   0  0  0
  -32.3121   12.5716   71.9030 C   0  0  0
  -32.4483   13.4662   72.5030 H   0  0  0
  -32.9147   12.4724   70.6656 C   0  0  0
  -33.5194   13.2926   70.2945 H   0  0  0
  -32.7393   11.3383   69.8969 C   0  0  0
  -31.9845   10.2892   70.3988 C   0  0  0
  -31.8179    9.0558   69.5965 C   0  0  0
  -31.2092    8.0983   70.0546 O   0  0  0
  -32.3933    9.0827   68.3496 N   0  0  0
  -32.2580    8.2697   67.7559 H   0  0  0
  -33.1046   10.1520   67.8559 C   0  0  0
  -33.3099   11.2681   68.5609 C   0  0  0
  -33.8425   12.1255   68.1600 H   0  0  0
  -33.5894   10.1198   66.4451 C   0  0  0
  -33.1250   10.9148   65.6413 O   0  0  0
  -34.4979    9.1190   66.1189 N   0  0  0
  -34.6339    8.7699   64.7044 C   0  0  0
  -34.6208    9.6799   64.0954 H   0  0  0
  -35.5742    8.2363   64.5406 H   0  0  0
  -33.4617    7.8850   64.2972 C   0  0  0
  -32.6396    7.4367   65.0809 O   0  0  0
  -33.3895    7.6152   62.9592 N   0  0  0
  -32.6325    7.0292   62.6241 H   0  0  0
  -34.0346    7.9789   62.2679 H   0  0  0
  -35.3507    8.4311   67.0920 C   0  0  0
  -35.2653    8.9233   68.0647 H   0  0  0
  -36.3873    8.5735   66.7673 H   0  0  0
  -35.0435    6.9420   67.2293 C   0  0  0
  -35.1641    6.4388   66.2642 H   0  0  0
  -34.0002    6.8066   67.5248 H   0  0  0
  -35.9520    6.2834   68.2604 C   0  0  0
  -35.8249    6.7685   69.2336 H   0  0  0
  -37.0004    6.4108   67.9711 H   0  0  0
  -35.6466    4.8024   68.3972 C   0  0  0
  -35.8104    4.2930   67.4444 H   0  0  0
  -36.2936    4.3336   69.1433 H   0  0  0
  -34.6078    4.6387   68.7003 H   0  0  0
  2  1  1
  2  3  1
  2 10  2
  3  4  1
  3  5  2
  5  6  1
  5  7  1
  7  8  1
  7  9  2
  9 10  1
  9 16  1
 10 11  1
 11 12  2
 11 13  1
 13 14  1
 13 15  1
 15 16  2
 15 18  1
 16 17  1
 18 19  2
 18 20  1
 20 21  1
 20 29  1
 21 22  1
 21 23  1
 21 24  1
 24 25  2
 24 26  1
 26 27  1
 26 28  1
 29 30  1
 29 31  1
 29 32  1
 32 33  1
 32 34  1
 32 35  1
 35 36  1
 35 37  1
 35 38  1
 38 39  1
 38 40  1
 38 41  1
M  ZZC   1 h1
M  ZZC   2 c14
M  ZZC   3 c13
M  ZZC   4 h2
M  ZZC   5 c12
M  ZZC   6 h3
M  ZZC   7 c11
M  ZZC   8 h4
M  ZZC   9 c10
M  ZZC  10 c15
M  ZZC  11 c16
M  ZZC  12 o3
M  ZZC  13 n3
M  ZZC  14 h19
M  ZZC  15 c8
M  ZZC  16 c9
M  ZZC  17 h5
M  ZZC  18 c7
M  ZZC  19 o2
M  ZZC  20 n1
M  ZZC  21 c5
M  ZZC  22 h8
M  ZZC  23 h9
M  ZZC  24 c6
M  ZZC  25 o1
M  ZZC  26 n2
M  ZZC  27 h6
M  ZZC  28 h7
M  ZZC  29 c4
M  ZZC  30 h10
M  ZZC  31 h11
M  ZZC  32 c3
M  ZZC  33 h12
M  ZZC  34 h13
M  ZZC  35 c2
M  ZZC  36 h14
M  ZZC  37 h15
M  ZZC  38 c1
M  ZZC  39 h16
M  ZZC  40 h17
M  ZZC  41 h18
M  ZZM   1 5
M  ZZI   1 1
M  ZZM   2 37
M  ZZI   2 125
M  ZZM   3 37
M  ZZI   3 125
M  ZZM   4 5
M  ZZI   4 1
M  ZZM   5 37
M  ZZI   5 125
M  ZZM   6 5
M  ZZI   6 1
M  ZZM   7 37
M  ZZI   7 125
M  ZZM   8 5
M  ZZI   8 1
M  ZZM   9 37
M  ZZI   9 124
M  ZZM  10 37
M  ZZI  10 124
M  ZZM  11 3
M  ZZI  11 121
M  ZZM  12 7
M  ZZI  12 81
M  ZZM  13 10
M  ZZI  13 191
M  ZZM  14 28
M  ZZI  14 11
M  ZZM  15 2
M  ZZI  15 120
M  ZZM  16 2
M  ZZI  16 120
M  ZZM  17 5
M  ZZI  17 1
M  ZZM  18 3
M  ZZI  18 121
M  ZZM  19 7
M  ZZI  19 81
M  ZZM  20 10
M  ZZI  20 192
M  ZZM  21 1
M  ZZI  21 112
M  ZZM  22 5
M  ZZI  22 1
M  ZZM  23 5
M  ZZI  23 1
M  ZZM  24 3
M  ZZI  24 121
M  ZZM  25 7
M  ZZI  25 81
M  ZZM  26 10
M  ZZI  26 212
M  ZZM  27 28
M  ZZI  27 11
M  ZZM  28 28
M  ZZI  28 11
M  ZZM  29 1
M  ZZI  29 112
M  ZZM  30 5
M  ZZI  30 1
M  ZZM  31 5
M  ZZI  31 1
M  ZZM  32 1
M  ZZI  32 112
M  ZZM  33 5
M  ZZI  33 1
M  ZZM  34 5
M  ZZI  34 1
M  ZZM  35 1
M  ZZI  35 112
M  ZZM  36 5
M  ZZI  36 1
M  ZZM  37 5
M  ZZI  37 1
M  ZZM  38 1
M  ZZI  38 111
M  ZZM  39 5
M  ZZI  39 1
M  ZZM  40 5
M  ZZI  40 1
M  ZZM  41 5
M  ZZI  41 1
M  END
> <NAME>
Z750595774

> <Score>
-27.313295

> <Natom>
41

> <Nflex>
6

> <Hbond>
-6.950422

> <Hphob>
-5.516503

> <VwInt>
-25.642134

> <Eintl>
4.214922

> <Dsolv>
13.116059

> <SolEl>
9.352151

> <mfScore>
-84.981484

> <RecConf>
1

> <molLogP>
1.3613

$$$$
Z1005650958
  MOLSOFT 11211612053D

 41 42  0  0  0  0  0  0  0  0999 V2000
  -32.8668   10.2839   64.8403 O   0  0  0
  -33.0247    8.8513   64.6940 S   0  0  0
  -32.4705    7.9228   65.6562 O   0  0  0
  -32.4567    8.3834   63.1650 N   0  0  0
  -32.0622    7.4375   63.1384 H   0  0  0
  -33.0865    8.5428   62.3724 H   0  0  0
  -34.7611    8.5193   64.4861 C   0  0  0
  -35.1277    9.2648   63.7757 H   0  0  0
  -34.8571    7.5207   64.0487 H   0  0  0
  -35.5098    8.6435   65.8050 C   0  0  0
  -35.2479    9.5666   66.3312 H   0  0  0
  -36.5886    8.6534   65.6170 H   0  0  0
  -35.2260    7.5369   66.6943 N   0  0  0
  -34.5747    7.6842   67.4582 H   0  0  0
  -35.7412    6.2794   66.4496 C   0  0  0
  -36.4288    6.0109   65.4749 O   0  0  0
  -35.3931    5.2422   67.4571 C   0  0  0
  -35.1372    3.9347   67.0688 C   0  0  0
  -35.1491    3.5916   65.7323 O   0  0  0
  -35.0030    2.6323   65.6733 H   0  0  0
  -34.8428    2.9646   68.0066 C   0  0  0
  -34.6419    1.9410   67.7070 H   0  0  0
  -34.7994    3.3006   69.3429 C   0  0  0
  -34.5676    2.5281   70.0701 H   0  0  0
  -35.0448    4.6034   69.7552 C   0  0  0
  -35.3463    5.5719   68.8053 C   0  0  0
  -35.5663    6.5838   69.1315 H   0  0  0
  -34.9856    4.9606   71.2177 C   0  0  0
  -34.5130    4.1510   71.7850 H   0  0  0
  -34.3192    5.8207   71.3472 H   0  0  0
  -36.3319    5.2577   71.8207 C   0  0  0
  -37.2020    4.2282   72.1494 C   0  0  0
  -36.9166    3.1930   71.9880 H   0  0  0
  -38.4401    4.5064   72.6888 C   0  0  0
  -39.1048    3.6905   72.9542 H   0  0  0
  -38.8310    5.8154   72.8857 C   0  0  0
  -39.8097    6.0459   73.2880 H   0  0  0
  -37.9734    6.8434   72.5696 C   0  0  0
  -38.2792    7.8715   72.7342 H   0  0  0
  -36.7291    6.5678   72.0441 C   0  0  0
  -36.0670    7.3934   71.8014 H   0  0  0
  2  1  2
  2  3  2
  2  4  1
  2  7  1
  4  5  1
  4  6  1
  7  8  1
  7  9  1
  7 10  1
 10 11  1
 10 12  1
 10 13  1
 13 14  1
 13 15  1
 15 16  2
 15 17  1
 17 18  1
 17 26  2
 18 19  1
 18 21  2
 19 20  1
 21 22  1
 21 23  1
 23 24  1
 23 25  2
 25 26  1
 25 28  1
 26 27  1
 28 29  1
 28 30  1
 28 31  1
 31 32  2
 31 40  1
 32 33  1
 32 34  1
 34 35  1
 34 36  2
 36 37  1
 36 38  1
 38 39  1
 38 40  2
 40 41  1
M  ZZC   1 o2
M  ZZC   2 s1
M  ZZC   3 o3
M  ZZC   4 n2
M  ZZC   5 h2
M  ZZC   6 h3
M  ZZC   7 c16
M  ZZC   8 h4
M  ZZC   9 h5
M  ZZC  10 c15
M  ZZC  11 h6
M  ZZC  12 h7
M  ZZC  13 n1
M  ZZC  14 h8
M  ZZC  15 c14
M  ZZC  16 o1
M  ZZC  17 c12
M  ZZC  18 c11
M  ZZC  19 o4
M  ZZC  20 h1
M  ZZC  21 c10
M  ZZC  22 h10
M  ZZC  23 c9
M  ZZC  24 h11
M  ZZC  25 c8
M  ZZC  26 c13
M  ZZC  27 h9
M  ZZC  28 c7
M  ZZC  29 h12
M  ZZC  30 h13
M  ZZC  31 c4
M  ZZC  32 c3
M  ZZC  33 h16
M  ZZC  34 c2
M  ZZC  35 h17
M  ZZC  36 c1
M  ZZC  37 h18
M  ZZC  38 c6
M  ZZC  39 h14
M  ZZC  40 c5
M  ZZC  41 h15
M  ZZM   1 32
M  ZZI   1 73
M  ZZM   2 18
M  ZZI   2 250
M  ZZM   3 32
M  ZZI   3 73
M  ZZM   4 43
M  ZZI   4 226
M  ZZM   5 28
M  ZZI   5 11
M  ZZM   6 28
M  ZZI   6 11
M  ZZM   7 1
M  ZZI   7 112
M  ZZM   8 5
M  ZZI   8 1
M  ZZM   9 5
M  ZZI   9 1
M  ZZM  10 1
M  ZZI  10 112
M  ZZM  11 5
M  ZZI  11 1
M  ZZM  12 5
M  ZZI  12 1
M  ZZM  13 10
M  ZZI  13 211
M  ZZM  14 28
M  ZZI  14 11
M  ZZM  15 3
M  ZZI  15 121
M  ZZM  16 7
M  ZZI  16 81
M  ZZM  17 37
M  ZZI  17 124
M  ZZM  18 37
M  ZZI  18 124
M  ZZM  19 6
M  ZZI  19 62
M  ZZM  20 29
M  ZZI  20 27
M  ZZM  21 37
M  ZZI  21 125
M  ZZM  22 5
M  ZZI  22 1
M  ZZM  23 37
M  ZZI  23 125
M  ZZM  24 5
M  ZZI  24 1
M  ZZM  25 37
M  ZZI  25 124
M  ZZM  26 37
M  ZZI  26 125
M  ZZM  27 5
M  ZZI  27 1
M  ZZM  28 1
M  ZZI  28 112
M  ZZM  29 5
M  ZZI  29 1
M  ZZM  30 5
M  ZZI  30 1
M  ZZM  31 37
M  ZZI  31 124
M  ZZM  32 37
M  ZZI  32 125
M  ZZM  33 5
M  ZZI  33 1
M  ZZM  34 37
M  ZZI  34 125
M  ZZM  35 5
M  ZZI  35 1
M  ZZM  36 37
M  ZZI  36 125
M  ZZM  37 5
M  ZZI  37 1
M  ZZM  38 37
M  ZZI  38 125
M  ZZM  39 5
M  ZZI  39 1
M  ZZM  40 37
M  ZZI  40 125
M  ZZM  41 5
M  ZZI  41 1
M  END
> <NAME>
Z1005650958

> <Score>
-27.291537

> <Natom>
41

> <Nflex>
6

> <Hbond>
-5.67009

> <Hphob>
-5.222657

> <VwInt>
-26.967914

> <Eintl>
3.882134

> <Dsolv>
13.473964

> <SolEl>
5.780928

> <mfScore>
-92.736133

> <RecConf>
1

> <molLogP>
1.464144

$$$$
Z729858608
  MOLSOFT 11211612053D

 41 43  0  0  0  0  0  0  0  0999 V2000
  -35.2152    2.5864   71.7498 H   0  0  0
  -35.0271    2.6339   70.6815 C   0  0  0
  -35.4289    3.7235   69.9351 C   0  0  0
  -36.1506    4.9337   70.4216 C   0  0  0
  -37.1540    4.6723   70.7753 H   0  0  0
  -35.6034    5.4414   71.2229 H   0  0  0
  -36.2167    5.7898   69.1588 C   0  0  0
  -35.5936    6.6855   69.2612 H   0  0  0
  -37.2381    6.1168   68.9341 H   0  0  0
  -35.6984    4.9804   68.0643 N   0  0  0
  -35.2086    3.7736   68.5900 C   0  0  0
  -34.5746    2.7404   67.9237 C   0  0  0
  -34.3955    2.7669   66.8547 H   0  0  0
  -34.1576    1.6495   68.6644 C   0  0  0
  -33.6518    0.8273   68.1683 H   0  0  0
  -34.3828    1.5973   70.0308 C   0  0  0
  -34.0534    0.7325   70.5967 H   0  0  0
  -35.6695    5.3297   66.7153 C   0  0  0
  -35.2912    4.5878   65.8191 O   0  0  0
  -36.1689    6.7254   66.4047 C   0  0  0
  -37.2583    6.6955   66.3164 H   0  0  0
  -35.8959    7.4469   67.1806 H   0  0  0
  -35.6145    7.1334   65.1512 O   0  0  0
  -34.4728    7.9051   65.4340 N   0  0  0
  -33.8164    8.1405   64.3441 C   0  0  0
  -34.1857    7.6644   63.1143 N   0  0  0
  -33.7031    7.8966   62.2488 H   0  0  0
  -35.0110    7.0780   63.0535 H   0  0  0
  -32.5597    8.9792   64.4276 C   0  0  0
  -31.7062    8.3498   64.1535 H   0  0  0
  -32.6231    9.7802   63.6870 H   0  0  0
  -32.3824    9.5466   65.7874 C   0  0  0
  -31.7290    8.9362   66.8382 C   0  0  0
  -31.2122    7.9909   66.8446 H   0  0  0
  -31.8943    9.8633   68.2604 S   0  0  0
  -32.7655   11.0408   67.3651 C   0  0  0
  -32.9011   10.7960   66.0766 N   0  0  0
  -33.3091   12.2276   68.0583 C   0  0  0
  -34.0479   11.9361   68.8100 H   0  0  0
  -33.8039   12.8909   67.3464 H   0  0  0
  -32.5158   12.7934   68.5541 H   0  0  0
  2  1  1
  2  3  1
  2 16  2
  3  4  1
  3 11  2
  4  5  1
  4  6  1
  4  7  1
  7  8  1
  7  9  1
  7 10  1
 10 11  1
 10 18  1
 11 12  1
 12 13  1
 12 14  2
 14 15  1
 14 16  1
 16 17  1
 18 19  2
 18 20  1
 20 21  1
 20 22  1
 20 23  1
 23 24  1
 24 25  2
 25 26  1
 25 29  1
 26 27  1
 26 28  1
 29 30  1
 29 31  1
 29 32  1
 32 33  2
 32 37  1
 33 34  1
 33 35  1
 35 36  1
 36 37  2
 36 38  1
 38 39  1
 38 40  1
 38 41  1
M  ZZC   1 h3
M  ZZC   2 c16
M  ZZC   3 c11
M  ZZC   4 c10
M  ZZC   5 h7
M  ZZC   6 h8
M  ZZC   7 c9
M  ZZC   8 h10
M  ZZC   9 h9
M  ZZC  10 n3
M  ZZC  11 c12
M  ZZC  12 c13
M  ZZC  13 h6
M  ZZC  14 c14
M  ZZC  15 h5
M  ZZC  16 c15
M  ZZC  17 h4
M  ZZC  18 c8
M  ZZC  19 o2
M  ZZC  20 c7
M  ZZC  21 h11
M  ZZC  22 h12
M  ZZC  23 o1
M  ZZC  24 n2
M  ZZC  25 c6
M  ZZC  26 n4
M  ZZC  27 h1
M  ZZC  28 h2
M  ZZC  29 c5
M  ZZC  30 h13
M  ZZC  31 h14
M  ZZC  32 c3
M  ZZC  33 c4
M  ZZC  34 h15
M  ZZC  35 s1
M  ZZC  36 c2
M  ZZC  37 n1
M  ZZC  38 c1
M  ZZC  39 h16
M  ZZC  40 h17
M  ZZC  41 h18
M  ZZM   1 5
M  ZZI   1 1
M  ZZM   2 37
M  ZZI   2 125
M  ZZM   3 37
M  ZZI   3 124
M  ZZM   4 1
M  ZZI   4 112
M  ZZM   5 5
M  ZZI   5 1
M  ZZM   6 5
M  ZZI   6 1
M  ZZM   7 1
M  ZZI   7 112
M  ZZM   8 5
M  ZZI   8 1
M  ZZM   9 5
M  ZZI   9 1
M  ZZM  10 10
M  ZZI  10 192
M  ZZM  11 37
M  ZZI  11 124
M  ZZM  12 37
M  ZZI  12 125
M  ZZM  13 5
M  ZZI  13 1
M  ZZM  14 37
M  ZZI  14 125
M  ZZM  15 5
M  ZZI  15 1
M  ZZM  16 37
M  ZZI  16 125
M  ZZM  17 5
M  ZZI  17 1
M  ZZM  18 3
M  ZZI  18 121
M  ZZM  19 7
M  ZZI  19 81
M  ZZM  20 1
M  ZZI  20 112
M  ZZM  21 5
M  ZZI  21 1
M  ZZM  22 5
M  ZZI  22 1
M  ZZM  23 6
M  ZZI  23 65
M  ZZM  24 9
M  ZZI  24 220
M  ZZM  25 3
M  ZZI  25 121
M  ZZM  26 40
M  ZZI  26 224
M  ZZM  27 28
M  ZZI  27 11
M  ZZM  28 28
M  ZZI  28 11
M  ZZM  29 1
M  ZZI  29 112
M  ZZM  30 5
M  ZZI  30 1
M  ZZM  31 5
M  ZZI  31 1
M  ZZM  32 64
M  ZZI  32 105
M  ZZM  33 63
M  ZZI  33 104
M  ZZM  34 5
M  ZZI  34 1
M  ZZM  35 44
M  ZZI  35 248
M  ZZM  36 63
M  ZZI  36 104
M  ZZM  37 66
M  ZZI  37 222
M  ZZM  38 1
M  ZZI  38 111
M  ZZM  39 5
M  ZZI  39 1
M  ZZM  40 5
M  ZZI  40 1
M  ZZM  41 5
M  ZZI  41 1
M  END
> <NAME>
Z729858608

> <Score>
-27.035956

> <Natom>
41

> <Nflex>
5

> <Hbond>
-5.081513

> <Hphob>
-5.891736

> <VwInt>
-30.521973

> <Eintl>
5.774535

> <Dsolv>
14.428931

> <SolEl>
9.800014

> <mfScore>
-111.089471

> <RecConf>
1

> <molLogP>
1.51444

$$$$
Z734772880
  MOLSOFT 11211612053D

 41 43  0  0  0  0  0  0  0  0999 V2000
  -35.9934    2.3667   72.6823 Cl  0  0  0
  -36.2514    3.4992   71.4057 C   0  0  0
  -35.6364    3.3116   70.1853 C   0  0  0
  -35.0068    2.4377   70.0513 H   0  0  0
  -35.8281    4.2248   69.1507 C   0  0  0
  -35.2447    4.0538   67.8949 C   0  0  0
  -34.4423    2.8350   67.5309 C   0  0  0
  -34.0519    2.9092   66.5115 H   0  0  0
  -35.0708    1.9413   67.5734 H   0  0  0
  -33.5941    2.7038   68.2078 H   0  0  0
  -35.4602    5.0417   66.9465 C   0  0  0
  -35.0121    4.9463   65.9639 H   0  0  0
  -36.2679    6.1322   67.2264 C   0  0  0
  -36.8611    6.2729   68.4147 N   0  0  0
  -36.6393    5.3409   69.3548 C   0  0  0
  -37.2580    5.4886   70.5863 C   0  0  0
  -37.9104    6.3384   70.7512 H   0  0  0
  -37.0741    4.5833   71.6096 C   0  0  0
  -37.5742    4.7313   72.5620 H   0  0  0
  -36.4754    7.1444   66.2700 N   0  0  0
  -37.2577    7.7695   66.4661 H   0  0  0
  -35.9844    7.0182   64.9998 N   0  0  0
  -34.9434    7.7465   64.6965 C   0  0  0
  -34.3356    7.5222   63.3400 C   0  0  0
  -33.6546    6.6676   63.3793 H   0  0  0
  -33.7938    8.4065   63.0006 H   0  0  0
  -35.1245    7.3095   62.6183 H   0  0  0
  -34.3264    8.7310   65.5846 C   0  0  0
  -34.9522    9.5578   66.4973 C   0  0  0
  -35.9866    9.6752   66.7866 H   0  0  0
  -33.9736   10.3415   67.0472 N   0  0  0
  -34.1458   11.3752   68.0567 C   0  0  0
  -34.0603   12.3490   67.5651 H   0  0  0
  -33.3650   11.2556   68.8140 H   0  0  0
  -35.1326   11.2560   68.5116 H   0  0  0
  -32.7488   10.1088   66.5433 N   0  0  0
  -32.9497    9.1133   65.6708 C   0  0  0
  -31.7831    8.5597   64.9448 C   0  0  0
  -31.6925    9.0082   63.9516 H   0  0  0
  -31.8802    7.4798   64.8221 H   0  0  0
  -30.8524    8.7475   65.4887 H   0  0  0
  2  1  1
  2  3  2
  2 18  1
  3  4  1
  3  5  1
  5  6  2
  5 15  1
  6  7  1
  6 11  1
  7  8  1
  7  9  1
  7 10  1
 11 12  1
 11 13  2
 13 14  1
 13 20  1
 14 15  2
 15 16  1
 16 17  1
 16 18  2
 18 19  1
 20 21  1
 20 22  1
 22 23  2
 23 24  1
 23 28  1
 24 25  1
 24 26  1
 24 27  1
 28 29  2
 28 37  1
 29 30  1
 29 31  1
 31 32  1
 31 36  1
 32 33  1
 32 34  1
 32 35  1
 36 37  2
 37 38  1
 38 39  1
 38 40  1
 38 41  1
M  ZZC   1 &Cl1
M  ZZC   2 c8
M  ZZC   3 c7
M  ZZC   4 h14
M  ZZC   5 c6
M  ZZC   6 c2
M  ZZC   7 c1
M  ZZC   8 h16
M  ZZC   9 h17
M  ZZC  10 h18
M  ZZC  11 c3
M  ZZC  12 h15
M  ZZC  13 c4
M  ZZC  14 n1
M  ZZC  15 c5
M  ZZC  16 c10
M  ZZC  17 h12
M  ZZC  18 c9
M  ZZC  19 h13
M  ZZC  20 n2
M  ZZC  21 h11
M  ZZC  22 n3
M  ZZC  23 c11
M  ZZC  24 c12
M  ZZC  25 h10
M  ZZC  26 h8
M  ZZC  27 h9
M  ZZC  28 c13
M  ZZC  29 c14
M  ZZC  30 h7
M  ZZC  31 n4
M  ZZC  32 c17
M  ZZC  33 h1
M  ZZC  34 h2
M  ZZC  35 h3
M  ZZC  36 n5
M  ZZC  37 c15
M  ZZC  38 c16
M  ZZC  39 h4
M  ZZC  40 h5
M  ZZC  41 h6
M  ZZM   1 12
M  ZZI   1 92
M  ZZM   2 37
M  ZZI   2 124
M  ZZM   3 37
M  ZZI   3 125
M  ZZM   4 5
M  ZZI   4 1
M  ZZM   5 37
M  ZZI   5 124
M  ZZM   6 37
M  ZZI   6 124
M  ZZM   7 1
M  ZZI   7 111
M  ZZM   8 5
M  ZZI   8 1
M  ZZM   9 5
M  ZZI   9 1
M  ZZM  10 5
M  ZZI  10 1
M  ZZM  11 37
M  ZZI  11 125
M  ZZM  12 5
M  ZZI  12 1
M  ZZM  13 37
M  ZZI  13 124
M  ZZM  14 38
M  ZZI  14 223
M  ZZM  15 37
M  ZZI  15 124
M  ZZM  16 37
M  ZZI  16 125
M  ZZM  17 5
M  ZZI  17 1
M  ZZM  18 37
M  ZZI  18 125
M  ZZM  19 5
M  ZZI  19 1
M  ZZM  20 40
M  ZZI  20 194
M  ZZM  21 28
M  ZZI  21 11
M  ZZM  22 9
M  ZZI  22 220
M  ZZM  23 3
M  ZZI  23 121
M  ZZM  24 1
M  ZZI  24 111
M  ZZM  25 5
M  ZZI  25 1
M  ZZM  26 5
M  ZZI  26 1
M  ZZM  27 5
M  ZZI  27 1
M  ZZM  28 64
M  ZZI  28 105
M  ZZM  29 63
M  ZZI  29 104
M  ZZM  30 5
M  ZZI  30 1
M  ZZM  31 39
M  ZZI  31 215
M  ZZM  32 1
M  ZZI  32 111
M  ZZM  33 5
M  ZZI  33 1
M  ZZM  34 5
M  ZZI  34 1
M  ZZM  35 5
M  ZZI  35 1
M  ZZM  36 65
M  ZZI  36 207
M  ZZM  37 64
M  ZZI  37 105
M  ZZM  38 1
M  ZZI  38 111
M  ZZM  39 5
M  ZZI  39 1
M  ZZM  40 5
M  ZZI  40 1
M  ZZM  41 5
M  ZZI  41 1
M  END
> <NAME>
Z734772880

> <Score>
-26.584341

> <Natom>
41

> <Nflex>
0

> <Hbond>
-3.114837

> <Hphob>
-7.270072

> <VwInt>
-25.472166

> <Eintl>
8.592098

> <Dsolv>
9.507474

> <SolEl>
6.83137

> <mfScore>
-94.974576

> <RecConf>
1

> <molLogP>
3.972036

$$$$
Z19703499
  MOLSOFT 11211612053D

 41 43  0  0  1  0  0  0  0  0999 V2000
  -36.1112    6.6053   64.9555 O   0  0  0
  -35.2819    7.0209   65.7546 C   0  0  0
  -35.2099    6.4143   67.0781 C   0  0  0
  -35.2467    5.0454   67.3038 C   0  0  0
  -35.3450    3.8922   66.3765 C   0  0  0
  -35.3632    2.9416   66.9173 H   0  0  0
  -34.4894    3.8663   65.7006 H   0  0  0
  -36.2568    3.9570   65.7779 H   0  0  0
  -35.1477    4.8407   68.6509 N   0  0  0
  -35.1337    3.9330   69.0998 H   0  0  0
  -35.0620    6.0309   69.3147 C   0  0  0
  -35.1375    7.0384   68.3660 C   0  0  0
  -35.1482    8.3530   68.8179 C   0  0  0
  -35.2772    9.1843   68.1341 H   0  0  0
  -34.9612    8.6020   70.1611 C   0  0  0
  -34.9062    9.6277   70.5085 H   0  0  0
  -34.8488    7.5780   71.0731 C   0  0  0
  -34.7212    7.8100   72.1257 H   0  0  0
  -34.9274    6.2640   70.6698 C   0  0  0
  -34.8660    5.4538   71.3896 H   0  0  0
  -34.3204    8.1293   65.3282 C   0  0  2
  -34.9482    8.9737   65.0212 H   0  0  0
  -33.4880    7.6304   64.1499 C   0  0  0
  -32.9160    6.7354   64.4100 H   0  0  0
  -32.7907    8.3959   63.7962 H   0  0  0
  -34.1348    7.3594   63.3111 H   0  0  0
  -33.4407    8.5516   66.3841 O   0  0  0
  -33.0609    9.8678   66.3039 C   0  0  0
  -33.2123   10.6226   65.3521 O   0  0  0
  -32.5422   10.2707   67.6275 C   0  0  0
  -31.6997    9.4355   68.3463 C   0  0  0
  -31.3450    8.4998   67.9259 H   0  0  0
  -31.3128    9.8043   69.6215 C   0  0  0
  -30.6484    9.1612   70.1900 H   0  0  0
  -31.7710   10.9851   70.1807 C   0  0  0
  -31.4562   11.2664   71.1807 H   0  0  0
  -32.6157   11.8164   69.4690 C   0  0  0
  -32.9630   12.7454   69.9086 H   0  0  0
  -32.9945   11.4516   68.1926 C   0  0  0
  -33.8426   12.2646   67.4689 O   0  0  0
  -34.4068   12.7620   68.0889 H   0  0  0
  2  1  2
  2  3  1
 21  2  1
  3  4  2
  3 12  1
  4  5  1
  4  9  1
  5  6  1
  5  7  1
  5  8  1
  9 10  1
  9 11  1
 11 12  2
 11 19  1
 12 13  1
 13 14  1
 13 15  2
 15 16  1
 15 17  1
 17 18  1
 17 19  2
 19 20  1
 21 22  1
 21 23  1
 21 27  1
 23 24  1
 23 25  1
 23 26  1
 27 28  1
 28 29  2
 28 30  1
 30 31  2
 30 39  1
 31 32  1
 31 33  1
 33 34  1
 33 35  2
 35 36  1
 35 37  1
 37 38  1
 37 39  2
 39 40  1
 40 41  1
M  ZZC   1 o1
M  ZZC   2 c10
M  ZZC   3 c3
M  ZZC   4 c2
M  ZZC   5 c1
M  ZZC   6 h13
M  ZZC   7 h14
M  ZZC   8 h15
M  ZZC   9 n1
M  ZZC  10 h17
M  ZZC  11 c9
M  ZZC  12 c4
M  ZZC  13 c5
M  ZZC  14 h12
M  ZZC  15 c6
M  ZZC  16 h11
M  ZZC  17 c7
M  ZZC  18 h10
M  ZZC  19 c8
M  ZZC  20 h9
M  ZZC  21 c11
M  ZZC  22 h16
M  ZZC  23 c12
M  ZZC  24 h6
M  ZZC  25 h7
M  ZZC  26 h8
M  ZZC  27 o2
M  ZZC  28 c13
M  ZZC  29 o3
M  ZZC  30 c14
M  ZZC  31 c15
M  ZZC  32 h5
M  ZZC  33 c16
M  ZZC  34 h4
M  ZZC  35 c17
M  ZZC  36 h3
M  ZZC  37 c18
M  ZZC  38 h2
M  ZZC  39 c19
M  ZZC  40 o4
M  ZZC  41 h1
M  ZZM   1 7
M  ZZI   1 80
M  ZZM   2 3
M  ZZI   2 122
M  ZZM   3 64
M  ZZI   3 105
M  ZZM   4 63
M  ZZI   4 104
M  ZZM   5 1
M  ZZI   5 111
M  ZZM   6 5
M  ZZI   6 1
M  ZZM   7 5
M  ZZI   7 1
M  ZZM   8 5
M  ZZI   8 1
M  ZZM   9 39
M  ZZI   9 215
M  ZZM  10 23
M  ZZI  10 10
M  ZZM  11 63
M  ZZI  11 104
M  ZZM  12 64
M  ZZI  12 105
M  ZZM  13 37
M  ZZI  13 125
M  ZZM  14 5
M  ZZI  14 1
M  ZZM  15 37
M  ZZI  15 125
M  ZZM  16 5
M  ZZI  16 1
M  ZZM  17 37
M  ZZI  17 125
M  ZZM  18 5
M  ZZI  18 1
M  ZZM  19 37
M  ZZI  19 125
M  ZZM  20 5
M  ZZI  20 1
M  ZZM  21 1
M  ZZI  21 113
M  ZZM  22 5
M  ZZI  22 1
M  ZZM  23 1
M  ZZI  23 111
M  ZZM  24 5
M  ZZI  24 1
M  ZZM  25 5
M  ZZI  25 1
M  ZZM  26 5
M  ZZI  26 1
M  ZZM  27 6
M  ZZI  27 61
M  ZZM  28 3
M  ZZI  28 123
M  ZZM  29 7
M  ZZI  29 82
M  ZZM  30 37
M  ZZI  30 124
M  ZZM  31 37
M  ZZI  31 125
M  ZZM  32 5
M  ZZI  32 1
M  ZZM  33 37
M  ZZI  33 125
M  ZZM  34 5
M  ZZI  34 1
M  ZZM  35 37
M  ZZI  35 125
M  ZZM  36 5
M  ZZI  36 1
M  ZZM  37 37
M  ZZI  37 125
M  ZZM  38 5
M  ZZI  38 1
M  ZZM  39 37
M  ZZI  39 124
M  ZZM  40 6
M  ZZI  40 62
M  ZZM  41 29
M  ZZI  41 27
M  END
> <NAME>
Z19703499

> <Score>
-26.498678

> <Natom>
41

> <Nflex>
2

> <Hbond>
-5.006674

> <Hphob>
-6.296079

> <VwInt>
-26.382184

> <Eintl>
7.813281

> <Dsolv>
14.504437

> <SolEl>
7.106722

> <mfScore>
-74.783535

> <RecConf>
1

> <molLogP>
3.128346

$$$$
Z226701598
  MOLSOFT 11211612053D

 41 42  0  0  1  0  0  0  0  0999 V2000
  -36.0359    7.1204   65.1521 O   0  0  0
  -35.8965    7.2562   66.3614 C   0  0  0
  -36.6219    6.4085   67.3786 C   0  0  0
  -37.0850    7.0752   68.1063 H   0  0  0
  -37.4587    5.9345   66.8601 H   0  0  0
  -35.7954    5.3712   68.0590 C   0  0  0
  -35.4882    5.2973   69.4475 C   0  0  0
  -35.8433    6.2595   70.5147 C   0  0  0
  -35.3818    5.9856   71.4682 H   0  0  0
  -36.9274    6.2860   70.6613 H   0  0  0
  -35.5002    7.2660   70.2567 H   0  0  0
  -34.8293    4.1765   69.7641 N   0  0  0
  -34.7077    3.5334   68.5873 N   0  0  0
  -34.1314    2.1937   68.5742 C   0  0  0
  -33.6433    2.0168   67.6119 H   0  0  0
  -34.9417    1.4754   68.7322 H   0  0  0
  -33.3933    2.1206   69.3773 H   0  0  0
  -35.2377    4.2259   67.5243 C   0  0  0
  -35.1918    3.7048   66.1403 C   0  0  0
  -34.1603    3.6558   65.7894 H   0  0  0
  -35.7607    4.3395   65.4576 H   0  0  0
  -35.6057    2.6974   66.0855 H   0  0  0
  -35.1317    8.2246   66.9621 O   0  0  0
  -34.6103    9.1970   66.0317 C   0  0  1
  -35.3687    9.4010   65.2666 H   0  0  0
  -34.3617   10.5447   66.7084 C   0  0  0
  -33.6167   11.3933   66.2384 O   0  0  0
  -35.0668   10.7626   67.8626 N   0  0  0
  -35.0090   11.6710   68.3132 H   0  0  0
  -35.6668   10.0570   68.2768 H   0  0  0
  -33.3320    8.7187   65.3896 C   0  0  0
  -32.1756    8.5819   66.1477 C   0  0  0
  -32.1941    8.7332   67.2234 H   0  0  0
  -30.9737    8.3137   65.5329 C   0  0  0
  -30.0616    8.2408   66.1148 H   0  0  0
  -30.9301    8.1532   64.1667 C   0  0  0
  -29.7479    7.9211   63.5739 F   0  0  0
  -32.0734    8.2240   63.4059 C   0  0  0
  -32.0235    8.0772   62.3333 H   0  0  0
  -33.2760    8.5025   64.0182 C   0  0  0
  -34.1717    8.5805   63.4082 H   0  0  0
  2  1  2
  2  3  1
  2 23  1
  3  4  1
  3  5  1
  3  6  1
  6  7  1
  6 18  2
  7  8  1
  7 12  2
  8  9  1
  8 10  1
  8 11  1
 12 13  1
 13 14  1
 13 18  1
 14 15  1
 14 16  1
 14 17  1
 18 19  1
 19 20  1
 19 21  1
 19 22  1
 24 23  1
 24 25  1
 24 26  1
 24 31  1
 26 27  2
 26 28  1
 28 29  1
 28 30  1
 31 32  2
 31 40  1
 32 33  1
 32 34  1
 34 35  1
 34 36  2
 36 37  1
 36 38  1
 38 39  1
 38 40  2
 40 41  1
M  ZZC   1 o1
M  ZZC   2 c8
M  ZZC   3 c7
M  ZZC   4 h7
M  ZZC   5 h8
M  ZZC   6 c3
M  ZZC   7 c2
M  ZZC   8 c1
M  ZZC   9 h15
M  ZZC  10 h16
M  ZZC  11 h17
M  ZZC  12 n2
M  ZZC  13 n1
M  ZZC  14 c5
M  ZZC  15 h12
M  ZZC  16 h13
M  ZZC  17 h14
M  ZZC  18 c4
M  ZZC  19 c6
M  ZZC  20 h10
M  ZZC  21 h11
M  ZZC  22 h9
M  ZZC  23 o2
M  ZZC  24 c9
M  ZZC  25 h18
M  ZZC  26 c16
M  ZZC  27 o3
M  ZZC  28 n3
M  ZZC  29 h1
M  ZZC  30 h2
M  ZZC  31 c10
M  ZZC  32 c11
M  ZZC  33 h6
M  ZZC  34 c12
M  ZZC  35 h5
M  ZZC  36 c13
M  ZZC  37 f1
M  ZZC  38 c14
M  ZZC  39 h4
M  ZZC  40 c15
M  ZZC  41 h3
M  ZZM   1 7
M  ZZI   1 82
M  ZZM   2 3
M  ZZI   2 123
M  ZZM   3 1
M  ZZI   3 112
M  ZZM   4 5
M  ZZI   4 1
M  ZZM   5 5
M  ZZI   5 1
M  ZZM   6 64
M  ZZI   6 105
M  ZZM   7 64
M  ZZI   7 105
M  ZZM   8 1
M  ZZI   8 111
M  ZZM   9 5
M  ZZI   9 1
M  ZZM  10 5
M  ZZI  10 1
M  ZZM  11 5
M  ZZI  11 1
M  ZZM  12 65
M  ZZI  12 207
M  ZZM  13 39
M  ZZI  13 215
M  ZZM  14 1
M  ZZI  14 111
M  ZZM  15 5
M  ZZI  15 1
M  ZZM  16 5
M  ZZI  16 1
M  ZZM  17 5
M  ZZI  17 1
M  ZZM  18 63
M  ZZI  18 104
M  ZZM  19 1
M  ZZI  19 111
M  ZZM  20 5
M  ZZI  20 1
M  ZZM  21 5
M  ZZI  21 1
M  ZZM  22 5
M  ZZI  22 1
M  ZZM  23 6
M  ZZI  23 65
M  ZZM  24 1
M  ZZI  24 113
M  ZZM  25 5
M  ZZI  25 1
M  ZZM  26 3
M  ZZI  26 121
M  ZZM  27 7
M  ZZI  27 81
M  ZZM  28 10
M  ZZI  28 212
M  ZZM  29 28
M  ZZI  29 11
M  ZZM  30 28
M  ZZI  30 11
M  ZZM  31 37
M  ZZI  31 124
M  ZZM  32 37
M  ZZI  32 125
M  ZZM  33 5
M  ZZI  33 1
M  ZZM  34 37
M  ZZI  34 125
M  ZZM  35 5
M  ZZI  35 1
M  ZZM  36 37
M  ZZI  36 124
M  ZZM  37 11
M  ZZI  37 90
M  ZZM  38 37
M  ZZI  38 125
M  ZZM  39 5
M  ZZI  39 1
M  ZZM  40 37
M  ZZI  40 125
M  ZZM  41 5
M  ZZI  41 1
M  END
> <NAME>
Z226701598

> <Score>
-26.173693

> <Natom>
41

> <Nflex>
5

> <Hbond>
-4.9627

> <Hphob>
-6.734121

> <VwInt>
-25.890578

> <Eintl>
7.722345

> <Dsolv>
11.604999

> <SolEl>
7.697921

> <mfScore>
-88.5206

> <RecConf>
1

> <molLogP>
0.932175

$$$$
Z281569994
  MOLSOFT 11211612053D

 41 42  0  0  1  0  0  0  0  0999 V2000
  -34.6800    3.7874   70.4767 F   0  0  0
  -34.9328    4.0849   69.1918 C   0  0  0
  -35.0001    3.0689   68.2618 C   0  0  0
  -34.7593    1.6493   68.6772 C   0  0  0
  -33.7168    1.5147   68.9818 H   0  0  0
  -34.9633    0.9589   67.8565 H   0  0  0
  -35.4192    1.3759   69.5064 H   0  0  0
  -35.2696    3.4094   66.9478 C   0  0  0
  -35.3214    2.6407   66.1831 H   0  0  0
  -35.4706    4.7296   66.5891 C   0  0  0
  -35.6678    4.9405   65.5454 H   0  0  0
  -35.3758    5.7536   67.5248 C   0  0  0
  -35.1070    5.4062   68.8424 C   0  0  0
  -35.0273    6.1477   69.6277 H   0  0  0
  -35.5154    7.1270   67.1551 N   0  0  0
  -35.9158    7.5997   65.9236 C   0  0  0
  -36.3040    6.9535   64.9637 O   0  0  0
  -35.8055    9.0966   65.9101 C   0  0  0
  -35.0757    9.3911   65.1497 H   0  0  0
  -36.7819    9.5184   65.6479 H   0  0  0
  -35.4073    9.4896   67.3281 C   0  0  1
  -36.2127   10.0493   67.8121 H   0  0  0
  -35.1573    8.1841   68.0644 C   0  0  0
  -35.7802    8.1260   68.9623 H   0  0  0
  -34.1068    8.0433   68.3439 H   0  0  0
  -34.1645   10.3547   67.3877 C   0  0  0
  -33.6376   10.8618   66.4067 O   0  0  0
  -33.6869   10.4734   68.6736 N   0  0  0
  -34.2480   10.1394   69.4540 H   0  0  0
  -32.3895   11.0657   69.0030 C   0  0  0
  -32.2135   11.9232   68.3432 H   0  0  0
  -31.2850   10.0255   68.8061 C   0  0  0
  -30.3860    9.8361   69.6105 O   0  0  0
  -31.2842    9.3853   67.5933 N   0  0  0
  -30.5694    8.6962   67.3911 H   0  0  0
  -31.9397    9.6122   66.8515 H   0  0  0
  -32.4867   11.5154   70.4501 C   0  0  0
  -33.3291   11.0867   71.2246 O   0  0  0
  -31.5353   12.4218   70.8290 N   0  0  0
  -31.5175   12.7621   71.7833 H   0  0  0
  -30.8235   12.7552   70.1884 H   0  0  0
  2  1  1
  2  3  1
  2 13  2
  3  4  1
  3  8  2
  4  5  1
  4  6  1
  4  7  1
  8  9  1
  8 10  1
 10 11  1
 10 12  2
 12 13  1
 12 15  1
 13 14  1
 15 16  1
 15 23  1
 16 17  2
 16 18  1
 18 19  1
 18 20  1
 21 18  1
 21 22  1
 21 23  1
 21 26  1
 23 24  1
 23 25  1
 26 27  2
 26 28  1
 28 29  1
 28 30  1
 30 31  1
 30 32  1
 30 37  1
 32 33  2
 32 34  1
 34 35  1
 34 36  1
 37 38  2
 37 39  1
 39 40  1
 39 41  1
M  ZZC   1 f1
M  ZZC   2 c7
M  ZZC   3 c2
M  ZZC   4 c1
M  ZZC   5 h14
M  ZZC   6 h15
M  ZZC   7 h16
M  ZZC   8 c3
M  ZZC   9 h13
M  ZZC  10 c4
M  ZZC  11 h12
M  ZZC  12 c5
M  ZZC  13 c6
M  ZZC  14 h11
M  ZZC  15 n1
M  ZZC  16 c11
M  ZZC  17 o1
M  ZZC  18 c10
M  ZZC  19 h7
M  ZZC  20 h8
M  ZZC  21 c9
M  ZZC  22 h17
M  ZZC  23 c8
M  ZZC  24 h10
M  ZZC  25 h9
M  ZZC  26 c12
M  ZZC  27 o2
M  ZZC  28 n2
M  ZZC  29 h6
M  ZZC  30 c13
M  ZZC  31 h5
M  ZZC  32 c15
M  ZZC  33 o4
M  ZZC  34 n4
M  ZZC  35 h1
M  ZZC  36 h2
M  ZZC  37 c14
M  ZZC  38 o3
M  ZZC  39 n3
M  ZZC  40 h3
M  ZZC  41 h4
M  ZZM   1 11
M  ZZI   1 90
M  ZZM   2 37
M  ZZI   2 124
M  ZZM   3 37
M  ZZI   3 124
M  ZZM   4 1
M  ZZI   4 111
M  ZZM   5 5
M  ZZI   5 1
M  ZZM   6 5
M  ZZI   6 1
M  ZZM   7 5
M  ZZI   7 1
M  ZZM   8 37
M  ZZI   8 125
M  ZZM   9 5
M  ZZI   9 1
M  ZZM  10 37
M  ZZI  10 125
M  ZZM  11 5
M  ZZI  11 1
M  ZZM  12 37
M  ZZI  12 124
M  ZZM  13 37
M  ZZI  13 125
M  ZZM  14 5
M  ZZI  14 1
M  ZZM  15 10
M  ZZI  15 192
M  ZZM  16 3
M  ZZI  16 121
M  ZZM  17 7
M  ZZI  17 81
M  ZZM  18 1
M  ZZI  18 112
M  ZZM  19 5
M  ZZI  19 1
M  ZZM  20 5
M  ZZI  20 1
M  ZZM  21 1
M  ZZI  21 113
M  ZZM  22 5
M  ZZI  22 1
M  ZZM  23 1
M  ZZI  23 112
M  ZZM  24 5
M  ZZI  24 1
M  ZZM  25 5
M  ZZI  25 1
M  ZZM  26 3
M  ZZI  26 121
M  ZZM  27 7
M  ZZI  27 81
M  ZZM  28 10
M  ZZI  28 211
M  ZZM  29 28
M  ZZI  29 11
M  ZZM  30 1
M  ZZI  30 113
M  ZZM  31 5
M  ZZI  31 1
M  ZZM  32 3
M  ZZI  32 121
M  ZZM  33 7
M  ZZI  33 81
M  ZZM  34 10
M  ZZI  34 212
M  ZZM  35 28
M  ZZI  35 11
M  ZZM  36 28
M  ZZI  36 11
M  ZZM  37 3
M  ZZI  37 121
M  ZZM  38 7
M  ZZI  38 81
M  ZZM  39 10
M  ZZI  39 212
M  ZZM  40 28
M  ZZI  40 11
M  ZZM  41 28
M  ZZI  41 11
M  END
> <NAME>
Z281569994

> <Score>
-25.998046

> <Natom>
41

> <Nflex>
4

> <Hbond>
-4.243995

> <Hphob>
-5.334696

> <VwInt>
-26.914046

> <Eintl>
7.622734

> <Dsolv>
12.67898

> <SolEl>
5.027754

> <mfScore>
-63.932054

> <RecConf>
1

> <molLogP>
-1.825344

$$$$
Z236426250
  MOLSOFT 11211612053D

 41 42  0  0  1  0  0  0  0  0999 V2000
  -36.1828    7.3731   65.0703 O   0  0  0
  -35.8601    7.3762   66.2500 C   0  0  0
  -36.2489    6.2844   67.2076 C   0  0  0
  -37.2523    6.4909   67.5934 H   0  0  0
  -36.2892    5.3523   66.6341 H   0  0  0
  -35.2423    6.1532   68.3443 C   0  0  0
  -34.2130    6.2715   67.9900 H   0  0  0
  -35.4094    6.9112   69.1167 H   0  0  0
  -35.3156    4.8377   68.9732 N   0  0  0
  -36.0147    4.4722   70.1013 C   0  0  0
  -36.8867    5.3902   70.8741 C   0  0  0
  -36.3046    6.2025   71.3188 H   0  0  0
  -37.3916    4.8561   71.6843 H   0  0  0
  -37.6606    5.8231   70.2334 H   0  0  0
  -35.7170    3.1420   70.2902 C   0  0  0
  -36.0828    2.5036   71.0827 H   0  0  0
  -34.8698    2.7831   69.2164 C   0  0  0
  -34.6238    3.8230   68.4117 N   0  0  0
  -34.2848    1.4571   68.9219 C   0  0  0
  -33.3913    1.5461   68.2965 H   0  0  0
  -35.0091    0.8308   68.3932 H   0  0  0
  -34.0002    0.9436   69.8447 H   0  0  0
  -35.1308    8.3557   66.8701 O   0  0  0
  -34.6210    9.3550   65.9673 C   0  0  1
  -35.3792    9.5936   65.2122 H   0  0  0
  -34.3416   10.6659   66.6976 C   0  0  0
  -33.5673   11.5087   66.2678 O   0  0  0
  -35.0513   10.8566   67.8534 N   0  0  0
  -34.9785   11.7475   68.3356 H   0  0  0
  -35.6810   10.1561   68.2305 H   0  0  0
  -33.3500    8.8582   65.3223 C   0  0  0
  -32.1953    8.7033   66.0812 C   0  0  0
  -32.2065    8.8735   67.1541 H   0  0  0
  -31.0035    8.3816   65.4737 C   0  0  0
  -30.0937    8.2923   66.0573 H   0  0  0
  -30.9659    8.1915   64.1122 C   0  0  0
  -29.7899    7.9149   63.5257 F   0  0  0
  -32.1085    8.2787   63.3510 C   0  0  0
  -32.0646    8.1038   62.2824 H   0  0  0
  -33.3030    8.6056   63.9575 C   0  0  0
  -34.1998    8.6862   63.3497 H   0  0  0
  2  1  2
  2  3  1
  2 23  1
  3  4  1
  3  5  1
  3  6  1
  6  7  1
  6  8  1
  6  9  1
  9 10  1
  9 18  1
 10 11  1
 10 15  2
 11 12  1
 11 13  1
 11 14  1
 15 16  1
 15 17  1
 17 18  2
 17 19  1
 19 20  1
 19 21  1
 19 22  1
 24 23  1
 24 25  1
 24 26  1
 24 31  1
 26 27  2
 26 28  1
 28 29  1
 28 30  1
 31 32  2
 31 40  1
 32 33  1
 32 34  1
 34 35  1
 34 36  2
 36 37  1
 36 38  1
 38 39  1
 38 40  2
 40 41  1
M  ZZC   1 o1
M  ZZC   2 c7
M  ZZC   3 c6
M  ZZC   4 h10
M  ZZC   5 h11
M  ZZC   6 c5
M  ZZC   7 h12
M  ZZC   8 h13
M  ZZC   9 n1
M  ZZC  10 c4
M  ZZC  11 c16
M  ZZC  12 h1
M  ZZC  13 h2
M  ZZC  14 h3
M  ZZC  15 c3
M  ZZC  16 h14
M  ZZC  17 c2
M  ZZC  18 n2
M  ZZC  19 c1
M  ZZC  20 h15
M  ZZC  21 h16
M  ZZC  22 h17
M  ZZC  23 o2
M  ZZC  24 c8
M  ZZC  25 h18
M  ZZC  26 c15
M  ZZC  27 o3
M  ZZC  28 n3
M  ZZC  29 h4
M  ZZC  30 h5
M  ZZC  31 c9
M  ZZC  32 c10
M  ZZC  33 h9
M  ZZC  34 c11
M  ZZC  35 h8
M  ZZC  36 c12
M  ZZC  37 f1
M  ZZC  38 c13
M  ZZC  39 h7
M  ZZC  40 c14
M  ZZC  41 h6
M  ZZM   1 7
M  ZZI   1 82
M  ZZM   2 3
M  ZZI   2 123
M  ZZM   3 1
M  ZZI   3 112
M  ZZM   4 5
M  ZZI   4 1
M  ZZM   5 5
M  ZZI   5 1
M  ZZM   6 1
M  ZZI   6 112
M  ZZM   7 5
M  ZZI   7 1
M  ZZM   8 5
M  ZZI   8 1
M  ZZM   9 39
M  ZZI   9 215
M  ZZM  10 63
M  ZZI  10 104
M  ZZM  11 1
M  ZZI  11 111
M  ZZM  12 5
M  ZZI  12 1
M  ZZM  13 5
M  ZZI  13 1
M  ZZM  14 5
M  ZZI  14 1
M  ZZM  15 64
M  ZZI  15 105
M  ZZM  16 5
M  ZZI  16 1
M  ZZM  17 64
M  ZZI  17 105
M  ZZM  18 65
M  ZZI  18 207
M  ZZM  19 1
M  ZZI  19 111
M  ZZM  20 5
M  ZZI  20 1
M  ZZM  21 5
M  ZZI  21 1
M  ZZM  22 5
M  ZZI  22 1
M  ZZM  23 6
M  ZZI  23 65
M  ZZM  24 1
M  ZZI  24 113
M  ZZM  25 5
M  ZZI  25 1
M  ZZM  26 3
M  ZZI  26 121
M  ZZM  27 7
M  ZZI  27 81
M  ZZM  28 10
M  ZZI  28 212
M  ZZM  29 28
M  ZZI  29 11
M  ZZM  30 28
M  ZZI  30 11
M  ZZM  31 37
M  ZZI  31 124
M  ZZM  32 37
M  ZZI  32 125
M  ZZM  33 5
M  ZZI  33 1
M  ZZM  34 37
M  ZZI  34 125
M  ZZM  35 5
M  ZZI  35 1
M  ZZM  36 37
M  ZZI  36 124
M  ZZM  37 11
M  ZZI  37 90
M  ZZM  38 37
M  ZZI  38 125
M  ZZM  39 5
M  ZZI  39 1
M  ZZM  40 37
M  ZZI  40 125
M  ZZM  41 5
M  ZZI  41 1
M  END
> <NAME>
Z236426250

> <Score>
-25.743355

> <Natom>
41

> <Nflex>
6

> <Hbond>
-4.978437

> <Hphob>
-5.829863

> <VwInt>
-27.169028

> <Eintl>
8.473596

> <Dsolv>
12.413975

> <SolEl>
7.600976

> <mfScore>
-104.490359

> <RecConf>
1

> <molLogP>
1.174597

$$$$
Z19675110
  MOLSOFT 11211612053D

 41 42  0  0  0  0  0  0  0  0999 V2000
  -33.0844   11.2069   65.9547 O   0  0  0
  -33.3936   10.4254   66.8424 C   0  0  0
  -33.3114   10.7493   68.2822 C   0  0  0
  -33.3812   12.0820   68.6472 C   0  0  0
  -33.4609   12.8649   67.8991 H   0  0  0
  -33.3917   12.4119   69.9838 C   0  0  0
  -33.4881   13.4469   70.2763 H   0  0  0
  -33.3104   11.4169   70.9355 C   0  0  0
  -33.3620   11.7346   72.2786 O   0  0  0
  -33.7106   12.6425   72.3569 H   0  0  0
  -33.2184   10.0887   70.5789 C   0  0  0
  -33.1651    9.3218   71.3449 H   0  0  0
  -33.2262    9.7451   69.2403 C   0  0  0
  -33.1665    8.6966   68.9625 H   0  0  0
  -33.9308    9.1811   66.7053 O   0  0  0
  -34.2761    8.8402   65.3568 C   0  0  0
  -33.4017    8.4221   64.8468 H   0  0  0
  -34.6801    9.7009   64.8125 H   0  0  0
  -35.3477    7.7832   65.4651 C   0  0  0
  -35.7619    7.1568   64.5019 O   0  0  0
  -35.8167    7.6244   66.7484 N   0  0  0
  -35.4145    8.1853   67.4921 H   0  0  0
  -36.7978    6.6181   67.0727 C   0  0  0
  -37.3586    6.3388   66.1782 H   0  0  0
  -37.5111    7.0443   67.7796 H   0  0  0
  -36.1478    5.4070   67.6699 C   0  0  0
  -35.5795    4.4428   66.8474 C   0  0  0
  -35.5806    4.5704   65.7685 H   0  0  0
  -35.0362    3.2986   67.3869 C   0  0  0
  -34.6241    2.5378   66.7298 H   0  0  0
  -35.0716    3.1316   68.7604 C   0  0  0
  -35.5745    4.1095   69.6016 C   0  0  0
  -35.5830    3.9832   70.6804 H   0  0  0
  -36.1171    5.2471   69.0481 C   0  0  0
  -36.5428    6.0013   69.7037 H   0  0  0
  -34.4796    1.5961   69.4775 S   0  0  0
  -33.5149    1.0293   68.5590 O   0  0  0
  -34.1662    1.8448   70.8695 O   0  0  0
  -35.8939    0.6821   69.4072 N   0  0  0
  -36.4585    0.8379   68.5653 H   0  0  0
  -36.4462    0.7090   70.2712 H   0  0  0
  2  1  2
  2  3  1
  2 15  1
  3  4  2
  3 13  1
  4  5  1
  4  6  1
  6  7  1
  6  8  2
  8  9  1
  8 11  1
  9 10  1
 11 12  1
 11 13  2
 13 14  1
 15 16  1
 16 17  1
 16 18  1
 16 19  1
 19 20  2
 19 21  1
 21 22  1
 21 23  1
 23 24  1
 23 25  1
 23 26  1
 26 27  2
 26 34  1
 27 28  1
 27 29  1
 29 30  1
 29 31  2
 31 32  1
 31 36  1
 32 33  1
 32 34  2
 34 35  1
 36 37  2
 36 38  2
 36 39  1
 39 40  1
 39 41  1
M  ZZC   1 o3
M  ZZC   2 c10
M  ZZC   3 c11
M  ZZC   4 c12
M  ZZC   5 h7
M  ZZC   6 c13
M  ZZC   7 h6
M  ZZC   8 c14
M  ZZC   9 o4
M  ZZC  10 h3
M  ZZC  11 c15
M  ZZC  12 h5
M  ZZC  13 c16
M  ZZC  14 h4
M  ZZC  15 o2
M  ZZC  16 c9
M  ZZC  17 h8
M  ZZC  18 h9
M  ZZC  19 c8
M  ZZC  20 o1
M  ZZC  21 n1
M  ZZC  22 h10
M  ZZC  23 c7
M  ZZC  24 h11
M  ZZC  25 h12
M  ZZC  26 c6
M  ZZC  27 c1
M  ZZC  28 h16
M  ZZC  29 c2
M  ZZC  30 h15
M  ZZC  31 c3
M  ZZC  32 c4
M  ZZC  33 h14
M  ZZC  34 c5
M  ZZC  35 h13
M  ZZC  36 s1
M  ZZC  37 o5
M  ZZC  38 o6
M  ZZC  39 n2
M  ZZC  40 h1
M  ZZC  41 h2
M  ZZM   1 7
M  ZZI   1 82
M  ZZM   2 3
M  ZZI   2 123
M  ZZM   3 37
M  ZZI   3 124
M  ZZM   4 37
M  ZZI   4 125
M  ZZM   5 5
M  ZZI   5 1
M  ZZM   6 37
M  ZZI   6 125
M  ZZM   7 5
M  ZZI   7 1
M  ZZM   8 37
M  ZZI   8 124
M  ZZM   9 6
M  ZZI   9 62
M  ZZM  10 29
M  ZZI  10 27
M  ZZM  11 37
M  ZZI  11 125
M  ZZM  12 5
M  ZZI  12 1
M  ZZM  13 37
M  ZZI  13 125
M  ZZM  14 5
M  ZZI  14 1
M  ZZM  15 6
M  ZZI  15 61
M  ZZM  16 1
M  ZZI  16 112
M  ZZM  17 5
M  ZZI  17 1
M  ZZM  18 5
M  ZZI  18 1
M  ZZM  19 3
M  ZZI  19 121
M  ZZM  20 7
M  ZZI  20 81
M  ZZM  21 10
M  ZZI  21 211
M  ZZM  22 28
M  ZZI  22 11
M  ZZM  23 1
M  ZZI  23 112
M  ZZM  24 5
M  ZZI  24 1
M  ZZM  25 5
M  ZZI  25 1
M  ZZM  26 37
M  ZZI  26 124
M  ZZM  27 37
M  ZZI  27 125
M  ZZM  28 5
M  ZZI  28 1
M  ZZM  29 37
M  ZZI  29 125
M  ZZM  30 5
M  ZZI  30 1
M  ZZM  31 37
M  ZZI  31 124
M  ZZM  32 37
M  ZZI  32 125
M  ZZM  33 5
M  ZZI  33 1
M  ZZM  34 37
M  ZZI  34 125
M  ZZM  35 5
M  ZZI  35 1
M  ZZM  36 18
M  ZZI  36 250
M  ZZM  37 32
M  ZZI  37 73
M  ZZM  38 32
M  ZZI  38 73
M  ZZM  39 43
M  ZZI  39 226
M  ZZM  40 28
M  ZZI  40 11
M  ZZM  41 28
M  ZZI  41 11
M  END
> <NAME>
Z19675110

> <Score>
-25.610194

> <Natom>
41

> <Nflex>
6

> <Hbond>
-5.374131

> <Hphob>
-5.73217

> <VwInt>
-27.260465

> <Eintl>
9.295607

> <Dsolv>
14.079062

> <SolEl>
7.466788

> <mfScore>
-66.492246

> <RecConf>
1

> <molLogP>
1.194201

$$$$
Z240974196
  MOLSOFT 11211612053D

 41 43  0  0  1  0  0  0  0  0999 V2000
  -35.0415    1.7325   68.6633 F   0  0  0
  -35.2862    2.9930   68.2724 C   0  0  0
  -35.2534    3.3090   66.9335 C   0  0  0
  -35.0403    2.5379   66.2015 H   0  0  0
  -35.4728    4.6127   66.5382 C   0  0  0
  -35.4151    4.8588   65.4826 H   0  0  0
  -35.7173    5.6079   67.4792 C   0  0  0
  -35.7771    5.2580   68.8236 C   0  0  0
  -35.9611    6.0128   69.5826 H   0  0  0
  -35.5581    3.9537   69.2192 C   0  0  0
  -35.5825    3.6837   70.2695 H   0  0  0
  -35.7826    7.0605   67.0754 C   0  0  2
  -36.2885    7.6523   67.8458 H   0  0  0
  -36.5154    7.2019   65.8530 O   0  0  0
  -37.3488    7.6650   66.0644 H   0  0  0
  -34.3361    7.5245   66.8832 C   0  0  0
  -33.7068    7.2062   67.7220 H   0  0  0
  -33.9029    7.0768   65.9863 H   0  0  0
  -34.1631    8.9720   66.7774 N   0  0  0
  -33.9973    9.8159   67.8468 C   0  0  0
  -33.6006   11.0085   67.2791 C   0  0  0
  -33.3012   12.0856   68.0944 C   0  0  0
  -32.9724   13.0254   67.6708 H   0  0  0
  -33.4076   11.9205   69.4600 C   0  0  0
  -33.1673   12.7518   70.1147 H   0  0  0
  -33.8058   10.7179   70.0076 C   0  0  0
  -33.8716   10.6215   71.0867 H   0  0  0
  -34.1168    9.6327   69.2134 C   0  0  0
  -34.4228    8.6886   69.6528 H   0  0  0
  -33.5431   10.9127   65.9112 N   0  0  0
  -33.9062    9.6787   65.6226 C   0  0  0
  -33.9846    9.1015   64.2500 C   0  0  0
  -34.5242    8.1510   64.2335 H   0  0  0
  -34.5791    9.7828   63.6368 H   0  0  0
  -32.6057    8.9252   63.6148 C   0  0  0
  -32.7251    8.5382   62.5988 H   0  0  0
  -32.1048    9.8919   63.5319 H   0  0  0
  -31.7053    7.9751   64.3756 C   0  0  0
  -30.7561    7.8475   63.8468 H   0  0  0
  -31.4781    8.3420   65.3805 H   0  0  0
  -32.1810    6.9963   64.4601 H   0  0  0
  2  1  1
  2  3  2
  2 10  1
  3  4  1
  3  5  1
  5  6  1
  5  7  2
  7  8  1
 12  7  1
  8  9  1
  8 10  2
 10 11  1
 12 13  1
 12 14  1
 12 16  1
 14 15  1
 16 17  1
 16 18  1
 16 19  1
 19 20  1
 19 31  1
 20 21  2
 20 28  1
 21 22  1
 21 30  1
 22 23  1
 22 24  2
 24 25  1
 24 26  1
 26 27  1
 26 28  2
 28 29  1
 30 31  2
 31 32  1
 32 33  1
 32 34  1
 32 35  1
 35 36  1
 35 37  1
 35 38  1
 38 39  1
 38 40  1
 38 41  1
M  ZZC   1 f1
M  ZZC   2 c16
M  ZZC   3 c15
M  ZZC   4 h4
M  ZZC   5 c14
M  ZZC   6 h5
M  ZZC   7 c13
M  ZZC   8 c18
M  ZZC   9 h2
M  ZZC  10 c17
M  ZZC  11 h3
M  ZZC  12 c12
M  ZZC  13 h19
M  ZZC  14 o1
M  ZZC  15 h1
M  ZZC  16 c11
M  ZZC  17 h6
M  ZZC  18 h7
M  ZZC  19 n2
M  ZZC  20 c10
M  ZZC  21 c5
M  ZZC  22 c6
M  ZZC  23 h11
M  ZZC  24 c7
M  ZZC  25 h10
M  ZZC  26 c8
M  ZZC  27 h9
M  ZZC  28 c9
M  ZZC  29 h8
M  ZZC  30 n1
M  ZZC  31 c4
M  ZZC  32 c3
M  ZZC  33 h12
M  ZZC  34 h13
M  ZZC  35 c2
M  ZZC  36 h14
M  ZZC  37 h15
M  ZZC  38 c1
M  ZZC  39 h16
M  ZZC  40 h17
M  ZZC  41 h18
M  ZZM   1 11
M  ZZI   1 90
M  ZZM   2 37
M  ZZI   2 124
M  ZZM   3 37
M  ZZI   3 125
M  ZZM   4 5
M  ZZI   4 1
M  ZZM   5 37
M  ZZI   5 125
M  ZZM   6 5
M  ZZI   6 1
M  ZZM   7 37
M  ZZI   7 124
M  ZZM   8 37
M  ZZI   8 125
M  ZZM   9 5
M  ZZI   9 1
M  ZZM  10 37
M  ZZI  10 125
M  ZZM  11 5
M  ZZI  11 1
M  ZZM  12 1
M  ZZI  12 113
M  ZZM  13 5
M  ZZI  13 1
M  ZZM  14 6
M  ZZI  14 60
M  ZZM  15 21
M  ZZI  15 20
M  ZZM  16 1
M  ZZI  16 112
M  ZZM  17 5
M  ZZI  17 1
M  ZZM  18 5
M  ZZI  18 1
M  ZZM  19 39
M  ZZI  19 215
M  ZZM  20 63
M  ZZI  20 104
M  ZZM  21 64
M  ZZI  21 105
M  ZZM  22 37
M  ZZI  22 125
M  ZZM  23 5
M  ZZI  23 1
M  ZZM  24 37
M  ZZI  24 125
M  ZZM  25 5
M  ZZI  25 1
M  ZZM  26 37
M  ZZI  26 125
M  ZZM  27 5
M  ZZI  27 1
M  ZZM  28 37
M  ZZI  28 125
M  ZZM  29 5
M  ZZI  29 1
M  ZZM  30 66
M  ZZI  30 222
M  ZZM  31 63
M  ZZI  31 104
M  ZZM  32 1
M  ZZI  32 112
M  ZZM  33 5
M  ZZI  33 1
M  ZZM  34 5
M  ZZI  34 1
M  ZZM  35 1
M  ZZI  35 112
M  ZZM  36 5
M  ZZI  36 1
M  ZZM  37 5
M  ZZI  37 1
M  ZZM  38 1
M  ZZI  38 111
M  ZZM  39 5
M  ZZI  39 1
M  ZZM  40 5
M  ZZI  40 1
M  ZZM  41 5
M  ZZI  41 1
M  END
> <NAME>
Z240974196

> <Score>
-25.47467

> <Natom>
41

> <Nflex>
6

> <Hbond>
-4.293419

> <Hphob>
-6.655998

> <VwInt>
-24.270223

> <Eintl>
5.260965

> <Dsolv>
8.962558

> <SolEl>
5.750764

> <mfScore>
-93.735963

> <RecConf>
1

> <molLogP>
3.860968

$$$$
Z393467266
  MOLSOFT 11211612053D

 41 44  0  0  0  0  0  0  0  0999 V2000
  -34.1742    2.0693   70.2919 H   0  0  0
  -34.3923    2.5139   69.3265 C   0  0  0
  -34.0194    1.9196   68.1397 C   0  0  0
  -33.4870    0.9741   68.1597 H   0  0  0
  -34.3102    2.5075   66.9245 C   0  0  0
  -33.9944    2.0178   66.0134 H   0  0  0
  -34.9895    3.7032   66.8235 C   0  0  0
  -35.2061    4.1258   65.8481 H   0  0  0
  -35.3577    4.3295   68.0051 C   0  0  0
  -36.0154    5.5316   68.3868 C   0  0  0
  -36.1010    5.6399   69.7191 N   0  0  0
  -35.4920    4.4896   70.2286 O   0  0  0
  -35.0492    3.7177   69.1976 C   0  0  0
  -36.5883    6.6104   67.5422 C   0  0  0
  -37.6213    6.3711   67.2702 H   0  0  0
  -36.6023    7.5515   68.0972 H   0  0  0
  -35.7953    6.8551   66.2829 C   0  0  0
  -36.2660    6.5847   65.1884 O   0  0  0
  -34.5530    7.4115   66.5292 N   0  0  0
  -34.2873    7.5892   67.4936 H   0  0  0
  -33.5983    7.7630   65.5415 C   0  0  0
  -32.3948    8.3493   65.9352 C   0  0  0
  -31.4046    8.6997   65.1029 N   0  0  0
  -31.6398    8.4815   63.8048 C   0  0  0
  -30.8347    8.7641   63.1336 H   0  0  0
  -32.8011    7.9322   63.3073 C   0  0  0
  -32.9185    7.7791   62.2399 H   0  0  0
  -33.8010    7.5637   64.1827 C   0  0  0
  -34.7074    7.1254   63.7840 H   0  0  0
  -32.1264    8.5094   67.2901 O   0  0  0
  -32.5515    9.7156   67.8520 C   0  0  0
  -33.2718   10.6781   67.1576 C   0  0  0
  -33.5490   10.5470   66.1184 H   0  0  0
  -33.6609   11.8325   67.8065 C   0  0  0
  -34.2247   12.5894   67.2746 H   0  0  0
  -33.3397   12.0305   69.1329 C   0  0  0
  -33.6468   12.9427   69.6333 H   0  0  0
  -32.6259   11.0729   69.8222 C   0  0  0
  -32.3696   11.2345   70.8644 H   0  0  0
  -32.2304    9.9153   69.1813 C   0  0  0
  -31.6637    9.1649   69.7232 H   0  0  0
  2  1  1
  2  3  2
  2 13  1
  3  4  1
  3  5  1
  5  6  1
  5  7  2
  7  8  1
  7  9  1
  9 10  1
  9 13  2
 10 11  2
 10 14  1
 11 12  1
 12 13  1
 14 15  1
 14 16  1
 14 17  1
 17 18  2
 17 19  1
 19 20  1
 19 21  1
 21 22  1
 21 28  2
 22 23  2
 22 30  1
 23 24  1
 24 25  1
 24 26  2
 26 27  1
 26 28  1
 28 29  1
 30 31  1
 31 32  1
 31 40  2
 32 33  1
 32 34  2
 34 35  1
 34 36  1
 36 37  1
 36 38  2
 38 39  1
 38 40  1
 40 41  1
M  ZZC   1 h1
M  ZZC   2 c19
M  ZZC   3 c18
M  ZZC   4 h2
M  ZZC   5 c17
M  ZZC   6 h3
M  ZZC   7 c16
M  ZZC   8 h4
M  ZZC   9 c15
M  ZZC  10 c14
M  ZZC  11 n3
M  ZZC  12 o3
M  ZZC  13 c20
M  ZZC  14 c13
M  ZZC  15 h5
M  ZZC  16 h6
M  ZZC  17 c12
M  ZZC  18 o2
M  ZZC  19 n2
M  ZZC  20 h7
M  ZZC  21 c8
M  ZZC  22 c7
M  ZZC  23 n1
M  ZZC  24 c11
M  ZZC  25 h8
M  ZZC  26 c10
M  ZZC  27 h9
M  ZZC  28 c9
M  ZZC  29 h10
M  ZZC  30 o1
M  ZZC  31 c4
M  ZZC  32 c3
M  ZZC  33 h13
M  ZZC  34 c2
M  ZZC  35 h14
M  ZZC  36 c1
M  ZZC  37 h15
M  ZZC  38 c6
M  ZZC  39 h11
M  ZZC  40 c5
M  ZZC  41 h12
M  ZZM   1 5
M  ZZI   1 1
M  ZZM   2 37
M  ZZI   2 125
M  ZZM   3 37
M  ZZI   3 125
M  ZZM   4 5
M  ZZI   4 1
M  ZZM   5 37
M  ZZI   5 125
M  ZZM   6 5
M  ZZI   6 1
M  ZZM   7 37
M  ZZI   7 125
M  ZZM   8 5
M  ZZI   8 1
M  ZZM   9 64
M  ZZI   9 105
M  ZZM  10 64
M  ZZI  10 105
M  ZZM  11 65
M  ZZI  11 207
M  ZZM  12 59
M  ZZI  12 56
M  ZZM  13 63
M  ZZI  13 104
M  ZZM  14 1
M  ZZI  14 112
M  ZZM  15 5
M  ZZI  15 1
M  ZZM  16 5
M  ZZI  16 1
M  ZZM  17 3
M  ZZI  17 121
M  ZZM  18 7
M  ZZI  18 81
M  ZZM  19 10
M  ZZI  19 191
M  ZZM  20 28
M  ZZI  20 11
M  ZZM  21 37
M  ZZI  21 124
M  ZZM  22 37
M  ZZI  22 124
M  ZZM  23 38
M  ZZI  23 223
M  ZZM  24 37
M  ZZI  24 125
M  ZZM  25 5
M  ZZI  25 1
M  ZZM  26 37
M  ZZI  26 125
M  ZZM  27 5
M  ZZI  27 1
M  ZZM  28 37
M  ZZI  28 125
M  ZZM  29 5
M  ZZI  29 1
M  ZZM  30 6
M  ZZI  30 59
M  ZZM  31 37
M  ZZI  31 124
M  ZZM  32 37
M  ZZI  32 125
M  ZZM  33 5
M  ZZI  33 1
M  ZZM  34 37
M  ZZI  34 125
M  ZZM  35 5
M  ZZI  35 1
M  ZZM  36 37
M  ZZI  36 125
M  ZZM  37 5
M  ZZI  37 1
M  ZZM  38 37
M  ZZI  38 125
M  ZZM  39 5
M  ZZI  39 1
M  ZZM  40 37
M  ZZI  40 125
M  ZZM  41 5
M  ZZI  41 1
M  END
> <NAME>
Z393467266

> <Score>
-24.999746

> <Natom>
41

> <Nflex>
3

> <Hbond>
-1.643915

> <Hphob>
-6.74728

> <VwInt>
-31.787526

> <Eintl>
6.782906

> <Dsolv>
11.616923

> <SolEl>
7.50738

> <mfScore>
-109.745051

> <RecConf>
1

> <molLogP>
3.267613

$$$$
Z24769170
  MOLSOFT 11211612053D

 42 44  0  0  1  0  0  0  0  0999 V2000
  -35.9400    6.6551   64.7815 O   0  0  0
  -35.2217    7.2136   65.6004 C   0  0  0
  -35.2778    6.8179   66.9944 C   0  0  0
  -35.3675    7.6685   68.0797 C   0  0  0
  -35.4260    8.7469   68.1458 H   0  0  0
  -35.3878    6.9065   69.2117 N   0  0  0
  -35.4491    7.2715   70.1547 H   0  0  0
  -35.3233    5.5771   68.8912 C   0  0  0
  -35.3092    4.4711   69.7197 C   0  0  0
  -35.3579    4.5606   70.8003 H   0  0  0
  -35.2209    3.2358   69.1130 C   0  0  0
  -35.2013    2.3394   69.7248 H   0  0  0
  -35.1605    3.1191   67.7420 C   0  0  0
  -35.0932    2.1332   67.2942 H   0  0  0
  -35.1859    4.2293   66.9249 C   0  0  0
  -35.2670    5.4884   67.5093 C   0  0  0
  -35.1362    4.1093   65.8475 H   0  0  0
  -34.2623    8.3133   65.1732 C   0  0  2
  -34.8713    9.1663   64.8526 H   0  0  0
  -33.3805    7.8112   64.0341 C   0  0  0
  -32.6577    8.5724   63.7267 H   0  0  0
  -33.9744    7.5257   63.1606 H   0  0  0
  -32.8031    6.9370   64.3482 H   0  0  0
  -33.4362    8.6799   66.2900 O   0  0  0
  -33.0766    9.9980   66.3014 C   0  0  0
  -33.1888   10.7917   65.3777 O   0  0  0
  -32.6345   10.3385   67.6673 C   0  0  0
  -31.8006    9.4981   68.3880 C   0  0  0
  -31.4109    8.5846   67.9485 H   0  0  0
  -31.4523    9.8404   69.6828 C   0  0  0
  -30.7906    9.1738   70.2231 H   0  0  0
  -31.9525   11.0096   70.2577 C   0  0  0
  -31.6555   11.4506   71.5496 O   0  0  0
  -30.6288   10.6897   72.1910 C   0  0  0
  -30.9675    9.6700   72.4025 H   0  0  0
  -30.4021   11.1700   73.1464 H   0  0  0
  -29.7130   10.6936   71.5932 H   0  0  0
  -32.8035   11.8294   69.5435 C   0  0  0
  -33.1893   12.7365   69.9963 H   0  0  0
  -33.1313   11.4890   68.2484 C   0  0  0
  -33.9798   12.2910   67.5180 O   0  0  0
  -34.4877   12.8482   68.1339 H   0  0  0
  2  1  2
  2  3  1
 18  2  1
  3  4  2
  3 16  1
  4  5  1
  4  6  1
  6  7  1
  6  8  1
  8  9  1
  8 16  2
  9 10  1
  9 11  2
 11 12  1
 11 13  1
 13 14  1
 13 15  2
 15 16  1
 15 17  1
 18 19  1
 18 20  1
 18 24  1
 20 21  1
 20 22  1
 20 23  1
 24 25  1
 25 26  2
 25 27  1
 27 28  2
 27 40  1
 28 29  1
 28 30  1
 30 31  1
 30 32  2
 32 33  1
 32 38  1
 33 34  1
 34 35  1
 34 36  1
 34 37  1
 38 39  1
 38 40  2
 40 41  1
 41 42  1
M  ZZC   1 o1
M  ZZC   2 c3
M  ZZC   3 c4
M  ZZC   4 c5
M  ZZC   5 h12
M  ZZC   6 n1
M  ZZC   7 h16
M  ZZC   8 c6
M  ZZC   9 c11
M  ZZC  10 h8
M  ZZC  11 c10
M  ZZC  12 h9
M  ZZC  13 c9
M  ZZC  14 h10
M  ZZC  15 c8
M  ZZC  16 c7
M  ZZC  17 h11
M  ZZC  18 c2
M  ZZC  19 h17
M  ZZC  20 c1
M  ZZC  21 h13
M  ZZC  22 h14
M  ZZC  23 h15
M  ZZC  24 o2
M  ZZC  25 c12
M  ZZC  26 o3
M  ZZC  27 c13
M  ZZC  28 c14
M  ZZC  29 h7
M  ZZC  30 c15
M  ZZC  31 h6
M  ZZC  32 c16
M  ZZC  33 o5
M  ZZC  34 c19
M  ZZC  35 h1
M  ZZC  36 h2
M  ZZC  37 h3
M  ZZC  38 c17
M  ZZC  39 h5
M  ZZC  40 c18
M  ZZC  41 o4
M  ZZC  42 h4
M  ZZM   1 7
M  ZZI   1 80
M  ZZM   2 3
M  ZZI   2 122
M  ZZM   3 64
M  ZZI   3 105
M  ZZM   4 63
M  ZZI   4 104
M  ZZM   5 5
M  ZZI   5 1
M  ZZM   6 39
M  ZZI   6 215
M  ZZM   7 23
M  ZZI   7 10
M  ZZM   8 63
M  ZZI   8 104
M  ZZM   9 37
M  ZZI   9 125
M  ZZM  10 5
M  ZZI  10 1
M  ZZM  11 37
M  ZZI  11 125
M  ZZM  12 5
M  ZZI  12 1
M  ZZM  13 37
M  ZZI  13 125
M  ZZM  14 5
M  ZZI  14 1
M  ZZM  15 37
M  ZZI  15 125
M  ZZM  16 64
M  ZZI  16 105
M  ZZM  17 5
M  ZZI  17 1
M  ZZM  18 1
M  ZZI  18 113
M  ZZM  19 5
M  ZZI  19 1
M  ZZM  20 1
M  ZZI  20 111
M  ZZM  21 5
M  ZZI  21 1
M  ZZM  22 5
M  ZZI  22 1
M  ZZM  23 5
M  ZZI  23 1
M  ZZM  24 6
M  ZZI  24 61
M  ZZM  25 3
M  ZZI  25 123
M  ZZM  26 7
M  ZZI  26 82
M  ZZM  27 37
M  ZZI  27 124
M  ZZM  28 37
M  ZZI  28 125
M  ZZM  29 5
M  ZZI  29 1
M  ZZM  30 37
M  ZZI  30 125
M  ZZM  31 5
M  ZZI  31 1
M  ZZM  32 37
M  ZZI  32 124
M  ZZM  33 6
M  ZZI  33 59
M  ZZM  34 1
M  ZZI  34 111
M  ZZM  35 5
M  ZZI  35 1
M  ZZM  36 5
M  ZZI  36 1
M  ZZM  37 5
M  ZZI  37 1
M  ZZM  38 37
M  ZZI  38 125
M  ZZM  39 5
M  ZZI  39 1
M  ZZM  40 37
M  ZZI  40 124
M  ZZM  41 6
M  ZZI  41 62
M  ZZM  42 29
M  ZZI  42 27
M  END
> <NAME>
Z24769170

> <Score>
-28.930784

> <Natom>
42

> <Nflex>
2

> <Hbond>
-4.811445

> <Hphob>
-6.655705

> <VwInt>
-28.731466

> <Eintl>
8.452728

> <Dsolv>
15.536579

> <SolEl>
5.425038

> <mfScore>
-99.986851

> <RecConf>
1

> <molLogP>
3.062541

$$$$
Z744335770
  MOLSOFT 11211612053D

 42 44  0  0  1  0  0  0  0  0999 V2000
  -36.8184    5.0556   71.7099 H   0  0  0
  -36.2849    4.5456   70.9136 C   0  0  0
  -35.7181    3.3862   71.2561 N   0  0  0
  -35.1039    2.8633   70.1990 C   0  0  0
  -35.0294    3.3854   68.9286 C   0  0  0
  -34.2894    2.5413   68.1217 N   0  0  0
  -33.9352    1.5402   68.8968 C   0  0  0
  -33.3352    0.6952   68.5948 H   0  0  0
  -34.4189    1.6899   70.1639 N   0  0  0
  -34.2909    1.0592   70.9431 H   0  0  0
  -35.6704    4.6052   68.6817 C   0  0  0
  -36.2938    5.1705   69.7305 N   0  0  0
  -35.7024    5.2587   67.4238 N   0  0  0
  -35.3599    4.4833   66.2269 C   0  0  0
  -34.3243    4.1381   66.2535 H   0  0  0
  -35.4617    5.0807   65.3203 H   0  0  0
  -36.0200    3.6180   66.1202 H   0  0  0
  -36.5617    6.4530   67.3450 C   0  0  0
  -36.6072    6.9735   68.3053 H   0  0  0
  -37.5860    6.1751   67.0785 H   0  0  0
  -36.0459    7.4471   66.3182 C   0  0  0
  -36.3536    7.3703   65.1368 O   0  0  0
  -35.1979    8.4089   66.8402 N   0  0  0
  -34.8635    8.3100   67.7933 H   0  0  0
  -34.6076    9.4322   65.9823 C   0  0  1
  -35.3675    9.7105   65.2431 H   0  0  0
  -34.2821   10.7200   66.7445 C   0  0  0
  -33.5032   11.5603   66.3187 O   0  0  0
  -35.0202   10.9377   67.8786 N   0  0  0
  -34.9318   11.8294   68.3558 H   0  0  0
  -35.7380   10.2983   68.2013 H   0  0  0
  -33.3903    8.9098   65.2630 C   0  0  0
  -32.1745    8.7739   65.9212 C   0  0  0
  -32.0839    9.0022   66.9789 H   0  0  0
  -31.0505    8.3819   65.2310 C   0  0  0
  -30.0998    8.2984   65.7478 H   0  0  0
  -31.1277    8.1008   63.8842 C   0  0  0
  -30.2389    7.7951   63.3409 H   0  0  0
  -32.3377    8.1836   63.2328 C   0  0  0
  -32.4054    7.9398   62.1780 H   0  0  0
  -33.4642    8.5792   63.9178 C   0  0  0
  -34.4076    8.6422   63.3839 H   0  0  0
  2  1  1
  2  3  2
  2 12  1
  3  4  1
  4  5  2
  4  9  1
  5  6  1
  5 11  1
  6  7  2
  7  8  1
  7  9  1
  9 10  1
 11 12  2
 11 13  1
 13 14  1
 13 18  1
 14 15  1
 14 16  1
 14 17  1
 18 19  1
 18 20  1
 18 21  1
 21 22  2
 21 23  1
 23 24  1
 25 23  1
 25 26  1
 25 27  1
 25 32  1
 27 28  2
 27 29  1
 29 30  1
 29 31  1
 32 33  1
 32 41  2
 33 34  1
 33 35  2
 35 36  1
 35 37  1
 37 38  1
 37 39  2
 39 40  1
 39 41  1
 41 42  1
M  ZZC   1 h1
M  ZZC   2 c16
M  ZZC   3 n6
M  ZZC   4 c14
M  ZZC   5 c13
M  ZZC   6 n5
M  ZZC   7 c15
M  ZZC   8 h2
M  ZZC   9 n4
M  ZZC  10 h16
M  ZZC  11 c12
M  ZZC  12 n7
M  ZZC  13 n1
M  ZZC  14 c1
M  ZZC  15 h13
M  ZZC  16 h14
M  ZZC  17 h15
M  ZZC  18 c2
M  ZZC  19 h11
M  ZZC  20 h12
M  ZZC  21 c3
M  ZZC  22 o1
M  ZZC  23 n2
M  ZZC  24 h10
M  ZZC  25 c4
M  ZZC  26 h17
M  ZZC  27 c11
M  ZZC  28 o2
M  ZZC  29 n3
M  ZZC  30 h3
M  ZZC  31 h4
M  ZZC  32 c5
M  ZZC  33 c10
M  ZZC  34 h5
M  ZZC  35 c9
M  ZZC  36 h6
M  ZZC  37 c8
M  ZZC  38 h7
M  ZZC  39 c7
M  ZZC  40 h8
M  ZZC  41 c6
M  ZZC  42 h9
M  ZZM   1 5
M  ZZI   1 6
M  ZZM   2 37
M  ZZI   2 125
M  ZZM   3 38
M  ZZI   3 223
M  ZZM   4 63
M  ZZI   4 104
M  ZZM   5 64
M  ZZI   5 105
M  ZZM   6 66
M  ZZI   6 222
M  ZZM   7 63
M  ZZI   7 104
M  ZZM   8 5
M  ZZI   8 1
M  ZZM   9 39
M  ZZI   9 215
M  ZZM  10 23
M  ZZI  10 10
M  ZZM  11 37
M  ZZI  11 124
M  ZZM  12 38
M  ZZI  12 223
M  ZZM  13 40
M  ZZI  13 193
M  ZZM  14 1
M  ZZI  14 111
M  ZZM  15 5
M  ZZI  15 1
M  ZZM  16 5
M  ZZI  16 1
M  ZZM  17 5
M  ZZI  17 1
M  ZZM  18 1
M  ZZI  18 112
M  ZZM  19 5
M  ZZI  19 1
M  ZZM  20 5
M  ZZI  20 1
M  ZZM  21 3
M  ZZI  21 121
M  ZZM  22 7
M  ZZI  22 81
M  ZZM  23 10
M  ZZI  23 211
M  ZZM  24 28
M  ZZI  24 11
M  ZZM  25 1
M  ZZI  25 113
M  ZZM  26 5
M  ZZI  26 1
M  ZZM  27 3
M  ZZI  27 121
M  ZZM  28 7
M  ZZI  28 81
M  ZZM  29 10
M  ZZI  29 212
M  ZZM  30 28
M  ZZI  30 11
M  ZZM  31 28
M  ZZI  31 11
M  ZZM  32 37
M  ZZI  32 124
M  ZZM  33 37
M  ZZI  33 125
M  ZZM  34 5
M  ZZI  34 1
M  ZZM  35 37
M  ZZI  35 125
M  ZZM  36 5
M  ZZI  36 1
M  ZZM  37 37
M  ZZI  37 125
M  ZZM  38 5
M  ZZI  38 1
M  ZZM  39 37
M  ZZI  39 125
M  ZZM  40 5
M  ZZI  40 1
M  ZZM  41 37
M  ZZI  41 125
M  ZZM  42 5
M  ZZI  42 1
M  END
> <NAME>
Z744335770

> <Score>
-28.851307

> <Natom>
42

> <Nflex>
5

> <Hbond>
-4.967201

> <Hphob>
-5.803136

> <VwInt>
-28.241626

> <Eintl>
8.507988

> <Dsolv>
13.335947

> <SolEl>
4.308301

> <mfScore>
-98.507202

> <RecConf>
1

> <molLogP>
-0.54026

$$$$
Z1516481215
  MOLSOFT 11211612053D

 42 44  0  0  1  0  0  0  0  0999 V2000
  -35.6151    5.1005   65.7448 F   0  0  0
  -35.2502    4.4214   66.8437 C   0  0  0
  -34.6559    3.1903   66.6699 C   0  0  0
  -34.4955    2.8064   65.6693 H   0  0  0
  -34.2698    2.4504   67.7669 C   0  0  0
  -33.7987    1.4814   67.6366 H   0  0  0
  -34.4920    2.9485   69.0323 C   0  0  0
  -34.1984    2.3650   69.8993 H   0  0  0
  -35.0855    4.1842   69.2026 C   0  0  0
  -35.2515    4.5509   70.2115 H   0  0  0
  -35.4700    4.9507   68.1099 C   0  0  0
  -36.1286    6.2853   68.3499 C   0  0  0
  -35.5223    6.8998   69.0250 H   0  0  0
  -37.0939    6.1074   68.8345 H   0  0  0
  -36.4010    7.0053   67.1422 O   0  0  0
  -35.3840    7.9705   66.8344 C   0  0  0
  -34.4013    7.4893   66.8668 H   0  0  0
  -35.4272    8.7709   67.5821 H   0  0  0
  -35.6888    8.5160   65.4395 C   0  0  1
  -35.7506    7.6841   64.7301 H   0  0  0
  -36.9672    9.1450   65.4730 O   0  0  0
  -37.5945    8.5046   65.8581 H   0  0  0
  -34.7006    9.5634   64.9324 C   0  0  0
  -34.7575   10.4698   65.5362 H   0  0  0
  -34.9742    9.8754   63.9197 H   0  0  0
  -33.3138    9.1067   64.8696 N   0  0  0
  -32.8014    8.3582   63.8485 C   0  0  0
  -33.3793    8.0604   62.9842 H   0  0  0
  -31.4970    8.1357   64.2050 C   0  0  0
  -30.7419    7.6006   63.6471 H   0  0  0
  -31.2173    8.6912   65.4254 N   0  0  0
  -32.3088    9.3379   65.7881 C   0  0  0
  -32.4530   10.1544   66.9840 C   0  0  0
  -31.9777    9.7182   68.2102 C   0  0  0
  -31.4606    8.7681   68.2985 H   0  0  0
  -32.1887   10.5032   69.3270 C   0  0  0
  -31.8322   10.1901   70.3034 H   0  0  0
  -32.8648   11.6962   69.1709 C   0  0  0
  -33.0567   12.3432   70.0199 H   0  0  0
  -33.2769   12.0601   67.9065 C   0  0  0
  -33.8061   12.9924   67.7497 H   0  0  0
  -33.0728   11.3327   66.8015 N   0  0  0
  2  1  1
  2  3  1
  2 11  2
  3  4  1
  3  5  2
  5  6  1
  5  7  1
  7  8  1
  7  9  2
  9 10  1
  9 11  1
 11 12  1
 12 13  1
 12 14  1
 12 15  1
 15 16  1
 16 17  1
 16 18  1
 19 16  1
 19 20  1
 19 21  1
 19 23  1
 21 22  1
 23 24  1
 23 25  1
 23 26  1
 26 27  1
 26 32  1
 27 28  1
 27 29  2
 29 30  1
 29 31  1
 31 32  2
 32 33  1
 33 34  2
 33 42  1
 34 35  1
 34 36  1
 36 37  1
 36 38  2
 38 39  1
 38 40  1
 40 41  1
 40 42  2
M  ZZC   1 f1
M  ZZC   2 c4
M  ZZC   3 c3
M  ZZC   4 h15
M  ZZC   5 c2
M  ZZC   6 h16
M  ZZC   7 c1
M  ZZC   8 h17
M  ZZC   9 c6
M  ZZC  10 h14
M  ZZC  11 c5
M  ZZC  12 c7
M  ZZC  13 h12
M  ZZC  14 h13
M  ZZC  15 o1
M  ZZC  16 c8
M  ZZC  17 h10
M  ZZC  18 h11
M  ZZC  19 c9
M  ZZC  20 h18
M  ZZC  21 o2
M  ZZC  22 h1
M  ZZC  23 c10
M  ZZC  24 h8
M  ZZC  25 h9
M  ZZC  26 n1
M  ZZC  27 c11
M  ZZC  28 h7
M  ZZC  29 c12
M  ZZC  30 h6
M  ZZC  31 n2
M  ZZC  32 c13
M  ZZC  33 c14
M  ZZC  34 c15
M  ZZC  35 h5
M  ZZC  36 c16
M  ZZC  37 h4
M  ZZC  38 c17
M  ZZC  39 h3
M  ZZC  40 c18
M  ZZC  41 h2
M  ZZC  42 n3
M  ZZM   1 11
M  ZZI   1 90
M  ZZM   2 37
M  ZZI   2 124
M  ZZM   3 37
M  ZZI   3 125
M  ZZM   4 5
M  ZZI   4 1
M  ZZM   5 37
M  ZZI   5 125
M  ZZM   6 5
M  ZZI   6 1
M  ZZM   7 37
M  ZZI   7 125
M  ZZM   8 5
M  ZZI   8 1
M  ZZM   9 37
M  ZZI   9 125
M  ZZM  10 5
M  ZZI  10 1
M  ZZM  11 37
M  ZZI  11 124
M  ZZM  12 1
M  ZZI  12 112
M  ZZM  13 5
M  ZZI  13 1
M  ZZM  14 5
M  ZZI  14 1
M  ZZM  15 6
M  ZZI  15 65
M  ZZM  16 1
M  ZZI  16 112
M  ZZM  17 5
M  ZZI  17 1
M  ZZM  18 5
M  ZZI  18 1
M  ZZM  19 1
M  ZZI  19 113
M  ZZM  20 5
M  ZZI  20 1
M  ZZM  21 6
M  ZZI  21 60
M  ZZM  22 21
M  ZZI  22 20
M  ZZM  23 1
M  ZZI  23 112
M  ZZM  24 5
M  ZZI  24 1
M  ZZM  25 5
M  ZZI  25 1
M  ZZM  26 39
M  ZZI  26 215
M  ZZM  27 63
M  ZZI  27 104
M  ZZM  28 5
M  ZZI  28 1
M  ZZM  29 64
M  ZZI  29 105
M  ZZM  30 5
M  ZZI  30 1
M  ZZM  31 66
M  ZZI  31 222
M  ZZM  32 63
M  ZZI  32 104
M  ZZM  33 37
M  ZZI  33 124
M  ZZM  34 37
M  ZZI  34 125
M  ZZM  35 5
M  ZZI  35 1
M  ZZM  36 37
M  ZZI  36 125
M  ZZM  37 5
M  ZZI  37 1
M  ZZM  38 37
M  ZZI  38 125
M  ZZM  39 5
M  ZZI  39 1
M  ZZM  40 37
M  ZZI  40 125
M  ZZM  41 5
M  ZZI  41 1
M  ZZM  42 38
M  ZZI  42 223
M  END
> <NAME>
Z1516481215

> <Score>
-28.674977

> <Natom>
42

> <Nflex>
7

> <Hbond>
-3.815932

> <Hphob>
-6.917882

> <VwInt>
-31.815076

> <Eintl>
7.850148

> <Dsolv>
9.675727

> <SolEl>
9.049381

> <mfScore>
-107.809553

> <RecConf>
1

> <molLogP>
1.857232

$$$$
Z167527576
  MOLSOFT 11211612053D

 42 43  0  0  0  0  0  0  0  0999 V2000
  -35.9434    5.2801   69.9607 F   0  0  0
  -35.5197    4.6316   68.8634 C   0  0  0
  -35.8115    5.1425   67.6082 C   0  0  0
  -35.3741    4.4276   66.5010 C   0  0  0
  -35.5979    4.7722   65.4968 H   0  0  0
  -34.6578    3.2573   66.6550 C   0  0  0
  -34.3228    2.7127   65.7781 H   0  0  0
  -34.3717    2.7704   67.9137 C   0  0  0
  -33.8119    1.8469   68.0273 H   0  0  0
  -34.8078    3.4620   69.0239 C   0  0  0
  -34.5992    3.0889   70.0206 H   0  0  0
  -36.6422    6.3939   67.4643 C   0  0  0
  -37.6503    6.1101   67.1489 H   0  0  0
  -36.7853    6.8887   68.4254 H   0  0  0
  -36.1129    7.3752   66.4321 C   0  0  0
  -36.4123    7.2144   65.2561 O   0  0  0
  -35.2949    8.4240   66.8677 N   0  0  0
  -34.6933    8.5042   68.2098 C   0  0  0
  -33.6623    8.1498   68.1229 H   0  0  0
  -35.1854    7.7937   68.8716 H   0  0  0
  -34.7764    9.8882   68.8607 C   0  0  0
  -35.5676   10.5032   68.4202 H   0  0  0
  -35.0085    9.7707   69.9231 H   0  0  0
  -33.4476   10.6049   68.8213 C   0  0  0
  -32.3852   10.0513   69.0535 O   0  0  0
  -33.5260   11.9398   68.5361 N   0  0  0
  -32.6628   12.4750   68.5037 H   0  0  0
  -34.4010   12.4326   68.3786 H   0  0  0
  -34.8567    9.3750   65.8446 C   0  0  0
  -35.6838    9.5260   65.1430 H   0  0  0
  -34.6741   10.3556   66.2898 H   0  0  0
  -33.6416    8.9254   65.0770 C   0  0  0
  -32.3673    9.0410   65.6136 C   0  0  0
  -32.2166    9.4512   66.6041 H   0  0  0
  -31.2617    8.6462   64.8957 C   0  0  0
  -30.2719    8.7387   65.3314 H   0  0  0
  -31.4078    8.1558   63.6192 C   0  0  0
  -30.5333    7.8641   63.0469 H   0  0  0
  -32.6671    8.0185   63.0807 C   0  0  0
  -32.7871    7.6160   62.0820 H   0  0  0
  -33.7769    8.3906   63.8048 C   0  0  0
  -34.7583    8.2685   63.3574 H   0  0  0
  2  1  1
  2  3  1
  2 10  2
  3  4  2
  3 12  1
  4  5  1
  4  6  1
  6  7  1
  6  8  2
  8  9  1
  8 10  1
 10 11  1
 12 13  1
 12 14  1
 12 15  1
 15 16  2
 15 17  1
 17 18  1
 17 29  1
 18 19  1
 18 20  1
 18 21  1
 21 22  1
 21 23  1
 21 24  1
 24 25  2
 24 26  1
 26 27  1
 26 28  1
 29 30  1
 29 31  1
 29 32  1
 32 33  1
 32 41  2
 33 34  1
 33 35  2
 35 36  1
 35 37  1
 37 38  1
 37 39  2
 39 40  1
 39 41  1
 41 42  1
M  ZZC   1 f1
M  ZZC   2 c18
M  ZZC   3 c13
M  ZZC   4 c14
M  ZZC   5 h4
M  ZZC   6 c15
M  ZZC   7 h3
M  ZZC   8 c16
M  ZZC   9 h2
M  ZZC  10 c17
M  ZZC  11 h1
M  ZZC  12 c12
M  ZZC  13 h5
M  ZZC  14 h6
M  ZZC  15 c11
M  ZZC  16 o2
M  ZZC  17 n1
M  ZZC  18 c8
M  ZZC  19 h11
M  ZZC  20 h12
M  ZZC  21 c9
M  ZZC  22 h10
M  ZZC  23 h9
M  ZZC  24 c10
M  ZZC  25 o1
M  ZZC  26 n2
M  ZZC  27 h7
M  ZZC  28 h8
M  ZZC  29 c7
M  ZZC  30 h13
M  ZZC  31 h14
M  ZZC  32 c4
M  ZZC  33 c3
M  ZZC  34 h17
M  ZZC  35 c2
M  ZZC  36 h18
M  ZZC  37 c1
M  ZZC  38 h19
M  ZZC  39 c6
M  ZZC  40 h15
M  ZZC  41 c5
M  ZZC  42 h16
M  ZZM   1 11
M  ZZI   1 90
M  ZZM   2 37
M  ZZI   2 124
M  ZZM   3 37
M  ZZI   3 124
M  ZZM   4 37
M  ZZI   4 125
M  ZZM   5 5
M  ZZI   5 1
M  ZZM   6 37
M  ZZI   6 125
M  ZZM   7 5
M  ZZI   7 1
M  ZZM   8 37
M  ZZI   8 125
M  ZZM   9 5
M  ZZI   9 1
M  ZZM  10 37
M  ZZI  10 125
M  ZZM  11 5
M  ZZI  11 1
M  ZZM  12 1
M  ZZI  12 112
M  ZZM  13 5
M  ZZI  13 1
M  ZZM  14 5
M  ZZI  14 1
M  ZZM  15 3
M  ZZI  15 121
M  ZZM  16 7
M  ZZI  16 81
M  ZZM  17 10
M  ZZI  17 192
M  ZZM  18 1
M  ZZI  18 112
M  ZZM  19 5
M  ZZI  19 1
M  ZZM  20 5
M  ZZI  20 1
M  ZZM  21 1
M  ZZI  21 112
M  ZZM  22 5
M  ZZI  22 1
M  ZZM  23 5
M  ZZI  23 1
M  ZZM  24 3
M  ZZI  24 121
M  ZZM  25 7
M  ZZI  25 81
M  ZZM  26 10
M  ZZI  26 212
M  ZZM  27 28
M  ZZI  27 11
M  ZZM  28 28
M  ZZI  28 11
M  ZZM  29 1
M  ZZI  29 112
M  ZZM  30 5
M  ZZI  30 1
M  ZZM  31 5
M  ZZI  31 1
M  ZZM  32 37
M  ZZI  32 124
M  ZZM  33 37
M  ZZI  33 125
M  ZZM  34 5
M  ZZI  34 1
M  ZZM  35 37
M  ZZI  35 125
M  ZZM  36 5
M  ZZI  36 1
M  ZZM  37 37
M  ZZI  37 125
M  ZZM  38 5
M  ZZI  38 1
M  ZZM  39 37
M  ZZI  39 125
M  ZZM  40 5
M  ZZI  40 1
M  ZZM  41 37
M  ZZI  41 125
M  ZZM  42 5
M  ZZI  42 1
M  END
> <NAME>
Z167527576

> <Score>
-28.037338

> <Natom>
42

> <Nflex>
8

> <Hbond>
-4.528779

> <Hphob>
-6.760663

> <VwInt>
-29.575223

> <Eintl>
8.380967

> <Dsolv>
10.451003

> <SolEl>
7.404677

> <mfScore>
-91.259219

> <RecConf>
1

> <molLogP>
2.242514

$$$$
Z227899598
  MOLSOFT 11211612053D

 42 44  0  0  0  0  0  0  0  0999 V2000
  -32.7494   11.0536   66.1540 O   0  0  0
  -33.2679   11.5783   67.4035 S   0  0  0
  -33.2989   13.0023   67.6440 O   0  0  0
  -32.3204   10.8649   68.7633 C   0  0  0
  -31.5013    9.7646   68.5504 C   0  0  0
  -31.4434    9.2671   67.5872 H   0  0  0
  -30.7294    9.3119   69.6015 C   0  0  0
  -29.9125    8.2648   69.4167 F   0  0  0
  -30.7577    9.9270   70.8348 C   0  0  0
  -30.1402    9.5596   71.6466 H   0  0  0
  -31.5696   11.0250   71.0167 C   0  0  0
  -31.5870   11.6439   72.2067 F   0  0  0
  -32.3554   11.5075   69.9939 C   0  0  0
  -32.9694   12.3865   70.1653 H   0  0  0
  -34.8443   10.9817   67.6868 N   0  0  0
  -35.3926   11.5052   68.3754 H   0  0  0
  -35.0359    9.5625   67.5969 C   0  0  0
  -35.1336    8.9781   66.3554 C   0  0  0
  -35.1641    9.6163   65.4790 H   0  0  0
  -35.2121    7.5985   66.2396 C   0  0  0
  -35.3518    7.0534   64.9612 O   0  0  0
  -34.3256    7.5434   64.0814 C   0  0  0
  -34.6337    8.4822   63.6121 H   0  0  0
  -34.1784    6.8077   63.2867 H   0  0  0
  -33.3708    7.6655   64.6041 H   0  0  0
  -35.1890    6.7796   67.3830 C   0  0  0
  -35.1094    7.4135   68.6225 C   0  0  0
  -35.0850    6.8450   69.5440 H   0  0  0
  -35.0325    8.7872   68.7325 C   0  0  0
  -34.9489    9.2448   69.7130 H   0  0  0
  -35.1905    5.3443   67.3210 N   0  0  0
  -35.1101    4.4862   68.4067 C   0  0  0
  -35.0912    4.7486   69.6006 O   0  0  0
  -35.0736    3.0740   67.8954 C   0  0  0
  -36.0378    2.6018   68.0861 H   0  0  0
  -34.2842    2.5001   68.3913 H   0  0  0
  -34.8057    3.2253   66.4160 C   0  0  0
  -35.2911    2.4549   65.8146 H   0  0  0
  -33.7327    3.1464   66.2207 H   0  0  0
  -35.2953    4.6100   66.0819 C   0  0  0
  -36.3463    4.5982   65.7733 H   0  0  0
  -34.6716    5.0435   65.3002 H   0  0  0
  2  1  2
  2  3  2
  2  4  1
  2 15  1
  4  5  2
  4 13  1
  5  6  1
  5  7  1
  7  8  1
  7  9  2
  9 10  1
  9 11  1
 11 12  1
 11 13  2
 13 14  1
 15 16  1
 15 17  1
 17 18  1
 17 29  2
 18 19  1
 18 20  2
 20 21  1
 20 26  1
 21 22  1
 22 23  1
 22 24  1
 22 25  1
 26 27  2
 26 31  1
 27 28  1
 27 29  1
 29 30  1
 31 32  1
 31 40  1
 32 33  2
 32 34  1
 34 35  1
 34 36  1
 34 37  1
 37 38  1
 37 39  1
 37 40  1
 40 41  1
 40 42  1
M  ZZC   1 o3
M  ZZC   2 s1
M  ZZC   3 o4
M  ZZC   4 c12
M  ZZC   5 c13
M  ZZC   6 h3
M  ZZC   7 c14
M  ZZC   8 f2
M  ZZC   9 c15
M  ZZC  10 h2
M  ZZC  11 c16
M  ZZC  12 f1
M  ZZC  13 c17
M  ZZC  14 h1
M  ZZC  15 n2
M  ZZC  16 h4
M  ZZC  17 c4
M  ZZC  18 c3
M  ZZC  19 h13
M  ZZC  20 c2
M  ZZC  21 o1
M  ZZC  22 c1
M  ZZC  23 h14
M  ZZC  24 h15
M  ZZC  25 h16
M  ZZC  26 c7
M  ZZC  27 c6
M  ZZC  28 h11
M  ZZC  29 c5
M  ZZC  30 h12
M  ZZC  31 n1
M  ZZC  32 c11
M  ZZC  33 o2
M  ZZC  34 c10
M  ZZC  35 h5
M  ZZC  36 h6
M  ZZC  37 c9
M  ZZC  38 h7
M  ZZC  39 h8
M  ZZC  40 c8
M  ZZC  41 h10
M  ZZC  42 h9
M  ZZM   1 32
M  ZZI   1 73
M  ZZM   2 18
M  ZZI   2 250
M  ZZM   3 32
M  ZZI   3 73
M  ZZM   4 37
M  ZZI   4 124
M  ZZM   5 37
M  ZZI   5 125
M  ZZM   6 5
M  ZZI   6 1
M  ZZM   7 37
M  ZZI   7 124
M  ZZM   8 11
M  ZZI   8 90
M  ZZM   9 37
M  ZZI   9 125
M  ZZM  10 5
M  ZZI  10 1
M  ZZM  11 37
M  ZZI  11 124
M  ZZM  12 11
M  ZZI  12 90
M  ZZM  13 37
M  ZZI  13 125
M  ZZM  14 5
M  ZZI  14 1
M  ZZM  15 43
M  ZZI  15 196
M  ZZM  16 28
M  ZZI  16 11
M  ZZM  17 37
M  ZZI  17 124
M  ZZM  18 37
M  ZZI  18 125
M  ZZM  19 5
M  ZZI  19 1
M  ZZM  20 37
M  ZZI  20 124
M  ZZM  21 6
M  ZZI  21 59
M  ZZM  22 1
M  ZZI  22 111
M  ZZM  23 5
M  ZZI  23 1
M  ZZM  24 5
M  ZZI  24 1
M  ZZM  25 5
M  ZZI  25 1
M  ZZM  26 37
M  ZZI  26 124
M  ZZM  27 37
M  ZZI  27 125
M  ZZM  28 5
M  ZZI  28 1
M  ZZM  29 37
M  ZZI  29 125
M  ZZM  30 5
M  ZZI  30 1
M  ZZM  31 10
M  ZZI  31 192
M  ZZM  32 3
M  ZZI  32 121
M  ZZM  33 7
M  ZZI  33 81
M  ZZM  34 1
M  ZZI  34 112
M  ZZM  35 5
M  ZZI  35 1
M  ZZM  36 5
M  ZZI  36 1
M  ZZM  37 1
M  ZZI  37 112
M  ZZM  38 5
M  ZZI  38 1
M  ZZM  39 5
M  ZZI  39 1
M  ZZM  40 1
M  ZZI  40 112
M  ZZM  41 5
M  ZZI  41 1
M  ZZM  42 5
M  ZZI  42 1
M  END
> <NAME>
Z227899598

> <Score>
-27.256628

> <Natom>
42

> <Nflex>
3

> <Hbond>
-3.081811

> <Hphob>
-6.703159

> <VwInt>
-29.266348

> <Eintl>
6.644808

> <Dsolv>
9.069312

> <SolEl>
8.630049

> <mfScore>
-60.300067

> <RecConf>
1

> <molLogP>
2.709925

$$$$
Z1258293181
  MOLSOFT 11211612053D

 42 44  0  0  1  0  0  0  0  0999 V2000
  -35.3335    5.1761   69.9778 H   0  0  0
  -34.9664    4.1862   69.7334 C   0  0  0
  -34.8498    3.7502   68.4178 C   0  0  0
  -34.3814    2.4696   68.1941 C   0  0  0
  -34.2748    2.0744   67.1885 H   0  0  0
  -34.0476    1.6933   69.2826 C   0  0  0
  -33.6703    0.6888   69.1440 H   0  0  0
  -34.1970    2.2173   70.5493 C   0  0  0
  -33.9420    1.6261   71.4231 H   0  0  0
  -34.6478    3.4500   70.8085 N   0  0  0
  -35.1875    4.5324   67.2906 N   0  0  0
  -35.1092    4.0836   66.3824 H   0  0  0
  -35.6475    5.8377   67.3288 C   0  0  0
  -35.8208    6.5662   68.2983 O   0  0  0
  -35.9996    6.3530   65.9416 C   0  0  0
  -36.6570    5.6282   65.2140 O   0  0  0
  -35.5604    7.5943   65.5402 N   0  0  0
  -35.8911    7.8811   64.6278 H   0  0  0
  -34.5664    8.4317   66.1832 C   0  0  2
  -34.3653    8.0249   67.1771 H   0  0  0
  -35.1142    9.8516   66.3090 C   0  0  0
  -36.1165    9.8325   66.7515 H   0  0  0
  -35.1938   10.3444   65.3338 H   0  0  0
  -34.2954   10.6977   67.1672 N   0  0  0
  -34.3484   10.7510   68.5357 C   0  0  0
  -35.0206   10.1285   69.1091 H   0  0  0
  -33.4253   11.6958   68.9063 C   0  0  0
  -33.1816   12.0178   69.9083 H   0  0  0
  -32.8669   12.1458   67.6944 C   0  0  0
  -32.0968   12.8870   67.5548 H   0  0  0
  -33.3941   11.5446   66.6227 N   0  0  0
  -33.2764    8.3898   65.3980 C   0  0  0
  -33.2639    8.3785   64.0056 C   0  0  0
  -34.1841    8.3929   63.4316 H   0  0  0
  -32.0755    8.3502   63.3114 C   0  0  0
  -32.0819    8.3281   62.2269 H   0  0  0
  -30.8808    8.3460   63.9917 C   0  0  0
  -29.9441    8.3192   63.4436 H   0  0  0
  -30.8758    8.3753   65.3699 C   0  0  0
  -29.9325    8.3770   65.9066 H   0  0  0
  -32.0617    8.3890   66.0689 C   0  0  0
  -32.0284    8.4102   67.1541 H   0  0  0
  2  1  1
  2  3  1
  2 10  2
  3  4  2
  3 11  1
  4  5  1
  4  6  1
  6  7  1
  6  8  2
  8  9  1
  8 10  1
 11 12  1
 11 13  1
 13 14  2
 13 15  1
 15 16  2
 15 17  1
 17 18  1
 19 17  1
 19 20  1
 19 21  1
 19 32  1
 21 22  1
 21 23  1
 21 24  1
 24 25  1
 24 31  1
 25 26  1
 25 27  2
 27 28  1
 27 29  1
 29 30  1
 29 31  2
 32 33  1
 32 41  2
 33 34  1
 33 35  2
 35 36  1
 35 37  1
 37 38  1
 37 39  2
 39 40  1
 39 41  1
 41 42  1
M  ZZC   1 h1
M  ZZC   2 c18
M  ZZC   3 c14
M  ZZC   4 c15
M  ZZC   5 h4
M  ZZC   6 c16
M  ZZC   7 h3
M  ZZC   8 c17
M  ZZC   9 h2
M  ZZC  10 n5
M  ZZC  11 n4
M  ZZC  12 h5
M  ZZC  13 c13
M  ZZC  14 o2
M  ZZC  15 c12
M  ZZC  16 o1
M  ZZC  17 n3
M  ZZC  18 h6
M  ZZC  19 c7
M  ZZC  20 h17
M  ZZC  21 c8
M  ZZC  22 h10
M  ZZC  23 h11
M  ZZC  24 n1
M  ZZC  25 c9
M  ZZC  26 h9
M  ZZC  27 c10
M  ZZC  28 h8
M  ZZC  29 c11
M  ZZC  30 h7
M  ZZC  31 n2
M  ZZC  32 c4
M  ZZC  33 c3
M  ZZC  34 h14
M  ZZC  35 c2
M  ZZC  36 h15
M  ZZC  37 c1
M  ZZC  38 h16
M  ZZC  39 c6
M  ZZC  40 h12
M  ZZC  41 c5
M  ZZC  42 h13
M  ZZM   1 5
M  ZZI   1 1
M  ZZM   2 37
M  ZZI   2 125
M  ZZM   3 37
M  ZZI   3 124
M  ZZM   4 37
M  ZZI   4 125
M  ZZM   5 5
M  ZZI   5 1
M  ZZM   6 37
M  ZZI   6 125
M  ZZM   7 5
M  ZZI   7 1
M  ZZM   8 37
M  ZZI   8 125
M  ZZM   9 5
M  ZZI   9 1
M  ZZM  10 38
M  ZZI  10 223
M  ZZM  11 10
M  ZZI  11 191
M  ZZM  12 28
M  ZZI  12 11
M  ZZM  13 3
M  ZZI  13 121
M  ZZM  14 7
M  ZZI  14 81
M  ZZM  15 3
M  ZZI  15 121
M  ZZM  16 7
M  ZZI  16 81
M  ZZM  17 10
M  ZZI  17 211
M  ZZM  18 28
M  ZZI  18 11
M  ZZM  19 1
M  ZZI  19 113
M  ZZM  20 5
M  ZZI  20 1
M  ZZM  21 1
M  ZZI  21 112
M  ZZM  22 5
M  ZZI  22 1
M  ZZM  23 5
M  ZZI  23 1
M  ZZM  24 39
M  ZZI  24 215
M  ZZM  25 63
M  ZZI  25 104
M  ZZM  26 5
M  ZZI  26 1
M  ZZM  27 64
M  ZZI  27 105
M  ZZM  28 5
M  ZZI  28 1
M  ZZM  29 64
M  ZZI  29 105
M  ZZM  30 5
M  ZZI  30 1
M  ZZM  31 65
M  ZZI  31 207
M  ZZM  32 37
M  ZZI  32 124
M  ZZM  33 37
M  ZZI  33 125
M  ZZM  34 5
M  ZZI  34 1
M  ZZM  35 37
M  ZZI  35 125
M  ZZM  36 5
M  ZZI  36 1
M  ZZM  37 37
M  ZZI  37 125
M  ZZM  38 5
M  ZZI  38 1
M  ZZM  39 37
M  ZZI  39 125
M  ZZM  40 5
M  ZZI  40 1
M  ZZM  41 37
M  ZZI  41 125
M  ZZM  42 5
M  ZZI  42 1
M  END
> <NAME>
Z1258293181

> <Score>
-27.06954

> <Natom>
42

> <Nflex>
5

> <Hbond>
-3.456141

> <Hphob>
-6.829909

> <VwInt>
-29.874933

> <Eintl>
8.49791

> <Dsolv>
10.743128

> <SolEl>
7.678974

> <mfScore>
-89.460721

> <RecConf>
1

> <molLogP>
0.594001

$$$$
Z872407662
  MOLSOFT 11211612053D

 42 44  0  0  0  0  0  0  0  0999 V2000
  -30.4555    9.0704   71.9389 H   0  0  0
  -30.9490    9.2814   70.9994 C   0  0  0
  -31.7483   10.3974   70.6622 C   0  0  0
  -32.1980   11.5330   71.3218 C   0  0  0
  -31.9305   11.7280   72.3555 H   0  0  0
  -33.0126   12.4135   70.6377 C   0  0  0
  -33.3910   13.2886   71.1557 H   0  0  0
  -33.3704   12.1991   69.3222 C   0  0  0
  -34.0109   12.9139   68.8154 H   0  0  0
  -32.9413   11.0614   68.6624 C   0  0  0
  -32.1233   10.1793   69.3539 C   0  0  0
  -31.5378    8.9877   69.0022 N   0  0  0
  -31.5963    8.5082   68.1113 H   0  0  0
  -30.8451    8.3976   70.0017 N   0  0  0
  -33.3493   10.7991   67.2639 C   0  0  0
  -32.7082   11.3252   66.3646 O   0  0  0
  -34.4282    9.9436   67.0685 N   0  0  0
  -34.6864    9.4831   65.7118 C   0  0  0
  -35.7343    9.1775   65.6314 H   0  0  0
  -34.5646   10.3284   65.0262 H   0  0  0
  -33.7230    8.3717   65.3064 C   0  0  0
  -33.6264    7.6061   66.0810 H   0  0  0
  -32.7193    8.7724   65.1286 H   0  0  0
  -34.2619    7.7160   64.0704 C   0  0  0
  -35.3879    7.2481   64.0203 O   0  0  0
  -33.3912    7.7184   63.0193 N   0  0  0
  -33.6982    7.3832   62.1152 H   0  0  0
  -32.4310    8.0367   63.0853 H   0  0  0
  -35.3802    9.5641   68.1182 C   0  0  0
  -35.2684   10.2373   68.9695 H   0  0  0
  -36.3839    9.7559   67.7316 H   0  0  0
  -35.3027    8.1357   68.6015 C   0  0  0
  -35.8030    7.0839   67.8416 C   0  0  0
  -36.2548    7.2671   66.8717 H   0  0  0
  -35.7470    5.7854   68.3047 C   0  0  0
  -36.1288    4.9752   67.6919 H   0  0  0
  -35.2150    5.5152   69.5464 C   0  0  0
  -35.1774    4.4939   69.9124 H   0  0  0
  -34.7387    6.5497   70.3232 C   0  0  0
  -34.3290    6.3440   71.3071 H   0  0  0
  -34.7820    7.8470   69.8556 C   0  0  0
  -34.4158    8.6419   70.4973 H   0  0  0
  2  1  1
  2  3  1
  2 14  2
  3  4  1
  3 11  2
  4  5  1
  4  6  2
  6  7  1
  6  8  1
  8  9  1
  8 10  2
 10 11  1
 10 15  1
 11 12  1
 12 13  1
 12 14  1
 15 16  2
 15 17  1
 17 18  1
 17 29  1
 18 19  1
 18 20  1
 18 21  1
 21 22  1
 21 23  1
 21 24  1
 24 25  2
 24 26  1
 26 27  1
 26 28  1
 29 30  1
 29 31  1
 29 32  1
 32 33  2
 32 41  1
 33 34  1
 33 35  1
 35 36  1
 35 37  2
 37 38  1
 37 39  1
 39 40  1
 39 41  2
 41 42  1
M  ZZC   1 h1
M  ZZC   2 c18
M  ZZC   3 c16
M  ZZC   4 c15
M  ZZC   5 h2
M  ZZC   6 c14
M  ZZC   7 h3
M  ZZC   8 c13
M  ZZC   9 h4
M  ZZC  10 c12
M  ZZC  11 c17
M  ZZC  12 n3
M  ZZC  13 h18
M  ZZC  14 n4
M  ZZC  15 c11
M  ZZC  16 o2
M  ZZC  17 n1
M  ZZC  18 c8
M  ZZC  19 h10
M  ZZC  20 h9
M  ZZC  21 c9
M  ZZC  22 h7
M  ZZC  23 h8
M  ZZC  24 c10
M  ZZC  25 o1
M  ZZC  26 n2
M  ZZC  27 h5
M  ZZC  28 h6
M  ZZC  29 c7
M  ZZC  30 h11
M  ZZC  31 h12
M  ZZC  32 c4
M  ZZC  33 c3
M  ZZC  34 h15
M  ZZC  35 c2
M  ZZC  36 h16
M  ZZC  37 c1
M  ZZC  38 h17
M  ZZC  39 c6
M  ZZC  40 h13
M  ZZC  41 c5
M  ZZC  42 h14
M  ZZM   1 5
M  ZZI   1 1
M  ZZM   2 64
M  ZZI   2 105
M  ZZM   3 64
M  ZZI   3 105
M  ZZM   4 37
M  ZZI   4 125
M  ZZM   5 5
M  ZZI   5 1
M  ZZM   6 37
M  ZZI   6 125
M  ZZM   7 5
M  ZZI   7 1
M  ZZM   8 37
M  ZZI   8 125
M  ZZM   9 5
M  ZZI   9 1
M  ZZM  10 37
M  ZZI  10 124
M  ZZM  11 63
M  ZZI  11 104
M  ZZM  12 39
M  ZZI  12 215
M  ZZM  13 23
M  ZZI  13 10
M  ZZM  14 65
M  ZZI  14 207
M  ZZM  15 3
M  ZZI  15 121
M  ZZM  16 7
M  ZZI  16 81
M  ZZM  17 10
M  ZZI  17 192
M  ZZM  18 1
M  ZZI  18 112
M  ZZM  19 5
M  ZZI  19 1
M  ZZM  20 5
M  ZZI  20 1
M  ZZM  21 1
M  ZZI  21 112
M  ZZM  22 5
M  ZZI  22 1
M  ZZM  23 5
M  ZZI  23 1
M  ZZM  24 3
M  ZZI  24 121
M  ZZM  25 7
M  ZZI  25 81
M  ZZM  26 10
M  ZZI  26 212
M  ZZM  27 28
M  ZZI  27 11
M  ZZM  28 28
M  ZZI  28 11
M  ZZM  29 1
M  ZZI  29 112
M  ZZM  30 5
M  ZZI  30 1
M  ZZM  31 5
M  ZZI  31 1
M  ZZM  32 37
M  ZZI  32 124
M  ZZM  33 37
M  ZZI  33 125
M  ZZM  34 5
M  ZZI  34 1
M  ZZM  35 37
M  ZZI  35 125
M  ZZM  36 5
M  ZZI  36 1
M  ZZM  37 37
M  ZZI  37 125
M  ZZM  38 5
M  ZZI  38 1
M  ZZM  39 37
M  ZZI  39 125
M  ZZM  40 5
M  ZZI  40 1
M  ZZM  41 37
M  ZZI  41 125
M  ZZM  42 5
M  ZZI  42 1
M  END
> <NAME>
Z872407662

> <Score>
-26.995231

> <Natom>
42

> <Nflex>
6

> <Hbond>
-6.816122

> <Hphob>
-5.430961

> <VwInt>
-27.777766

> <Eintl>
5.476064

> <Dsolv>
16.538049

> <SolEl>
8.579593

> <mfScore>
-88.679449

> <RecConf>
1

> <molLogP>
1.580569

$$$$
Z27683230
  MOLSOFT 11211612053D

 42 43  0  0  0  0  0  0  0  0999 V2000
  -33.5897    1.0206   68.3648 O   0  0  0
  -34.5039    1.5961   69.3281 S   0  0  0
  -34.1471    1.7522   70.7231 O   0  0  0
  -35.9590    0.7486   69.2599 N   0  0  0
  -36.5454    0.9715   68.4512 H   0  0  0
  -36.4762    0.7323   70.1456 H   0  0  0
  -34.9975    3.2134   68.7003 C   0  0  0
  -35.0800    3.4300   67.3332 C   0  0  0
  -34.8961    2.6282   66.6232 H   0  0  0
  -35.3907    4.6947   66.8678 C   0  0  0
  -35.4385    4.8518   65.7967 H   0  0  0
  -35.5900    5.7399   67.7633 C   0  0  0
  -35.5065    5.4998   69.1237 C   0  0  0
  -35.6720    6.3043   69.8316 H   0  0  0
  -35.2112    4.2416   69.6017 C   0  0  0
  -35.1363    4.0836   70.6738 H   0  0  0
  -35.8378    7.0743   67.3620 N   0  0  0
  -35.8361    7.7754   68.0992 H   0  0  0
  -36.0696    7.5094   66.0682 C   0  0  0
  -36.2598    6.7913   65.0988 O   0  0  0
  -36.1538    9.0115   65.9433 C   0  0  0
  -36.1268    9.2601   64.8790 H   0  0  0
  -37.1183    9.3330   66.3500 H   0  0  0
  -34.9960    9.7061   66.6447 C   0  0  0
  -34.0429    9.2145   66.4177 H   0  0  0
  -34.9511   10.7368   66.2918 H   0  0  0
  -35.2365    9.6501   68.0597 O   0  0  0
  -34.3314   10.4066   68.8104 C   0  0  0
  -33.9670    9.9044   70.0525 C   0  0  0
  -34.4989    8.6577   70.4046 O   0  0  0
  -34.0484    8.1723   71.6740 C   0  0  0
  -32.9598    8.0860   71.6337 H   0  0  0
  -34.4474    7.1732   71.8789 H   0  0  0
  -34.2926    8.8782   72.4750 H   0  0  0
  -33.1073   10.6349   70.8665 C   0  0  0
  -32.7951   10.2838   71.8426 H   0  0  0
  -32.6292   11.8554   70.4375 C   0  0  0
  -31.9589   12.4284   71.0707 H   0  0  0
  -33.0029   12.3550   69.2094 C   0  0  0
  -32.6352   13.3214   68.8859 H   0  0  0
  -33.8518   11.6412   68.3928 C   0  0  0
  -34.1531   12.0927   67.4559 H   0  0  0
  2  1  2
  2  3  2
  2  4  1
  2  7  1
  4  5  1
  4  6  1
  7  8  2
  7 15  1
  8  9  1
  8 10  1
 10 11  1
 10 12  2
 12 13  1
 12 17  1
 13 14  1
 13 15  2
 15 16  1
 17 18  1
 17 19  1
 19 20  2
 19 21  1
 21 22  1
 21 23  1
 21 24  1
 24 25  1
 24 26  1
 24 27  1
 27 28  1
 28 29  2
 28 41  1
 29 30  1
 29 35  1
 30 31  1
 31 32  1
 31 33  1
 31 34  1
 35 36  1
 35 37  2
 37 38  1
 37 39  1
 39 40  1
 39 41  2
 41 42  1
M  ZZC   1 o4
M  ZZC   2 s1
M  ZZC   3 o5
M  ZZC   4 n2
M  ZZC   5 h1
M  ZZC   6 h2
M  ZZC   7 c14
M  ZZC   8 c13
M  ZZC   9 h5
M  ZZC  10 c12
M  ZZC  11 h6
M  ZZC  12 c11
M  ZZC  13 c16
M  ZZC  14 h3
M  ZZC  15 c15
M  ZZC  16 h4
M  ZZC  17 n1
M  ZZC  18 h7
M  ZZC  19 c10
M  ZZC  20 o3
M  ZZC  21 c9
M  ZZC  22 h8
M  ZZC  23 h9
M  ZZC  24 c8
M  ZZC  25 h10
M  ZZC  26 h11
M  ZZC  27 o2
M  ZZC  28 c7
M  ZZC  29 c2
M  ZZC  30 o1
M  ZZC  31 c1
M  ZZC  32 h16
M  ZZC  33 h17
M  ZZC  34 h18
M  ZZC  35 c3
M  ZZC  36 h15
M  ZZC  37 c4
M  ZZC  38 h14
M  ZZC  39 c5
M  ZZC  40 h13
M  ZZC  41 c6
M  ZZC  42 h12
M  ZZM   1 32
M  ZZI   1 73
M  ZZM   2 18
M  ZZI   2 250
M  ZZM   3 32
M  ZZI   3 73
M  ZZM   4 43
M  ZZI   4 226
M  ZZM   5 28
M  ZZI   5 11
M  ZZM   6 28
M  ZZI   6 11
M  ZZM   7 37
M  ZZI   7 124
M  ZZM   8 37
M  ZZI   8 125
M  ZZM   9 5
M  ZZI   9 1
M  ZZM  10 37
M  ZZI  10 125
M  ZZM  11 5
M  ZZI  11 1
M  ZZM  12 37
M  ZZI  12 124
M  ZZM  13 37
M  ZZI  13 125
M  ZZM  14 5
M  ZZI  14 1
M  ZZM  15 37
M  ZZI  15 125
M  ZZM  16 5
M  ZZI  16 1
M  ZZM  17 10
M  ZZI  17 191
M  ZZM  18 28
M  ZZI  18 11
M  ZZM  19 3
M  ZZI  19 121
M  ZZM  20 7
M  ZZI  20 81
M  ZZM  21 1
M  ZZI  21 112
M  ZZM  22 5
M  ZZI  22 1
M  ZZM  23 5
M  ZZI  23 1
M  ZZM  24 1
M  ZZI  24 112
M  ZZM  25 5
M  ZZI  25 1
M  ZZM  26 5
M  ZZI  26 1
M  ZZM  27 6
M  ZZI  27 59
M  ZZM  28 37
M  ZZI  28 124
M  ZZM  29 37
M  ZZI  29 124
M  ZZM  30 6
M  ZZI  30 59
M  ZZM  31 1
M  ZZI  31 111
M  ZZM  32 5
M  ZZI  32 1
M  ZZM  33 5
M  ZZI  33 1
M  ZZM  34 5
M  ZZI  34 1
M  ZZM  35 37
M  ZZI  35 125
M  ZZM  36 5
M  ZZI  36 1
M  ZZM  37 37
M  ZZI  37 125
M  ZZM  38 5
M  ZZI  38 1
M  ZZM  39 37
M  ZZI  39 125
M  ZZM  40 5
M  ZZI  40 1
M  ZZM  41 37
M  ZZI  41 125
M  ZZM  42 5
M  ZZI  42 1
M  END
> <NAME>
Z27683230

> <Score>
-26.965548

> <Natom>
42

> <Nflex>
5

> <Hbond>
-3.543704

> <Hphob>
-5.636603

> <VwInt>
-30.983107

> <Eintl>
7.881553

> <Dsolv>
11.640216

> <SolEl>
7.620443

> <mfScore>
-52.811263

> <RecConf>
1

> <molLogP>
1.79703

$$$$
Z1449867038
  MOLSOFT 11211612053D

 42 43  0  0  0  0  0  0  0  0999 V2000
  -32.3171    8.8283   63.4026 H   0  0  0
  -32.8172    8.0163   63.0183 N   0  3  0
  -32.1113    7.3799   62.6265 H   0  0  0
  -33.3918    8.3254   62.2218 H   0  0  0
  -33.6475    7.3055   64.0248 C   0  0  0
  -34.3232    6.6643   63.4547 H   0  0  0
  -32.9696    6.6755   64.6061 H   0  0  0
  -34.3609    8.3028   64.9270 C   0  0  0
  -33.6317    8.7048   65.6340 H   0  0  0
  -34.7880    9.1301   64.3498 H   0  0  0
  -35.4943    7.5565   65.6017 C   0  0  0
  -36.2740    6.9460   64.8894 O   0  0  0
  -35.5429    7.4826   66.9932 N   0  0  0
  -34.9367    8.4309   67.8785 C   0  0  0
  -34.5521    8.0626   69.1614 C   0  0  0
  -34.6596    7.0460   69.5141 H   0  0  0
  -33.9700    8.9741   70.0160 C   0  0  0
  -33.6595    8.6612   71.0079 H   0  0  0
  -33.7668   10.2751   69.6151 C   0  0  0
  -34.1858   10.6790   68.3559 C   0  0  0
  -34.0852   11.7040   68.0163 H   0  0  0
  -34.7707    9.7616   67.5050 C   0  0  0
  -35.1383   10.1231   66.5520 H   0  0  0
  -33.1479   11.1005   70.5540 O   0  0  0
  -32.8170   12.3919   70.0416 C   0  0  0
  -33.7189   12.9852   69.8643 H   0  0  0
  -32.2191   12.8972   70.8028 H   0  0  0
  -32.2072   12.3205   69.1360 H   0  0  0
  -36.3831    6.4188   67.5694 C   0  0  0
  -37.2543    6.2678   66.9232 H   0  0  0
  -36.7930    6.7603   68.5245 H   0  0  0
  -35.6937    5.0800   67.7318 C   0  0  0
  -35.2076    4.3719   66.6386 C   0  0  0
  -35.3148    4.7631   65.6343 H   0  0  0
  -34.5934    3.1479   66.7980 C   0  0  0
  -34.2200    2.6130   65.9310 H   0  0  0
  -34.4588    2.5977   68.0534 C   0  0  0
  -33.9757    1.6335   68.1766 H   0  0  0
  -34.9554    3.2729   69.1470 C   0  0  0
  -34.8648    2.8361   70.1365 H   0  0  0
  -35.5728    4.4977   68.9880 C   0  0  0
  -35.9663    4.9990   69.8672 H   0  0  0
  2  1  1
  2  3  1
  2  4  1
  2  5  1
  5  6  1
  5  7  1
  5  8  1
  8  9  1
  8 10  1
  8 11  1
 11 12  2
 11 13  1
 13 14  1
 13 29  1
 14 15  2
 14 22  1
 15 16  1
 15 17  1
 17 18  1
 17 19  2
 19 20  1
 19 24  1
 20 21  1
 20 22  2
 22 23  1
 24 25  1
 25 26  1
 25 27  1
 25 28  1
 29 30  1
 29 31  1
 29 32  1
 32 33  1
 32 41  2
 33 34  1
 33 35  2
 35 36  1
 35 37  1
 37 38  1
 37 39  2
 39 40  1
 39 41  1
 41 42  1
M  ZZC   1 h1
M  ZZC   2 n2
M  ZZC   3 h2
M  ZZC   4 h3
M  ZZC   5 c17
M  ZZC   6 h4
M  ZZC   7 h5
M  ZZC   8 c16
M  ZZC   9 h6
M  ZZC  10 h7
M  ZZC  11 c15
M  ZZC  12 o2
M  ZZC  13 n1
M  ZZC  14 c5
M  ZZC  15 c4
M  ZZC  16 h17
M  ZZC  17 c3
M  ZZC  18 h18
M  ZZC  19 c2
M  ZZC  20 c7
M  ZZC  21 h15
M  ZZC  22 c6
M  ZZC  23 h16
M  ZZC  24 o1
M  ZZC  25 c1
M  ZZC  26 h19
M  ZZC  27 h20
M  ZZC  28 h21
M  ZZC  29 c8
M  ZZC  30 h13
M  ZZC  31 h14
M  ZZC  32 c9
M  ZZC  33 c10
M  ZZC  34 h12
M  ZZC  35 c11
M  ZZC  36 h11
M  ZZC  37 c12
M  ZZC  38 h10
M  ZZC  39 c13
M  ZZC  40 h9
M  ZZC  41 c14
M  ZZC  42 h8
M  ZZM   1 36
M  ZZI   1 17
M  ZZM   2 34
M  ZZI   2 231
M  ZZM   3 36
M  ZZI   3 17
M  ZZM   4 36
M  ZZI   4 17
M  ZZM   5 1
M  ZZI   5 112
M  ZZM   6 5
M  ZZI   6 1
M  ZZM   7 5
M  ZZI   7 1
M  ZZM   8 1
M  ZZI   8 112
M  ZZM   9 5
M  ZZI   9 1
M  ZZM  10 5
M  ZZI  10 1
M  ZZM  11 3
M  ZZI  11 121
M  ZZM  12 7
M  ZZI  12 81
M  ZZM  13 10
M  ZZI  13 192
M  ZZM  14 37
M  ZZI  14 124
M  ZZM  15 37
M  ZZI  15 125
M  ZZM  16 5
M  ZZI  16 1
M  ZZM  17 37
M  ZZI  17 125
M  ZZM  18 5
M  ZZI  18 1
M  ZZM  19 37
M  ZZI  19 124
M  ZZM  20 37
M  ZZI  20 125
M  ZZM  21 5
M  ZZI  21 1
M  ZZM  22 37
M  ZZI  22 125
M  ZZM  23 5
M  ZZI  23 1
M  ZZM  24 6
M  ZZI  24 59
M  ZZM  25 1
M  ZZI  25 111
M  ZZM  26 5
M  ZZI  26 1
M  ZZM  27 5
M  ZZI  27 1
M  ZZM  28 5
M  ZZI  28 1
M  ZZM  29 1
M  ZZI  29 112
M  ZZM  30 5
M  ZZI  30 1
M  ZZM  31 5
M  ZZI  31 1
M  ZZM  32 37
M  ZZI  32 124
M  ZZM  33 37
M  ZZI  33 125
M  ZZM  34 5
M  ZZI  34 1
M  ZZM  35 37
M  ZZI  35 125
M  ZZM  36 5
M  ZZI  36 1
M  ZZM  37 37
M  ZZI  37 125
M  ZZM  38 5
M  ZZI  38 1
M  ZZM  39 37
M  ZZI  39 125
M  ZZM  40 5
M  ZZI  40 1
M  ZZM  41 37
M  ZZI  41 125
M  ZZM  42 5
M  ZZI  42 1
M  CHG  1   2   1
M  END
> <NAME>
Z1449867038

> <Score>
-26.329877

> <Natom>
42

> <Nflex>
5

> <Hbond>
-5.978318

> <Hphob>
-6.510147

> <VwInt>
-27.948301

> <Eintl>
6.989466

> <Dsolv>
11.14932

> <SolEl>
14.762693

> <mfScore>
-67.148982

> <RecConf>
1

> <molLogP>
3.270518

$$$$
Z924392786
  MOLSOFT 11211612053D

 42 43  0  0  1  0  0  0  0  0999 V2000
  -34.0346    1.5273   70.5750 F   0  0  0
  -34.4280    2.3814   69.6179 C   0  0  0
  -34.2785    2.0234   68.2954 C   0  0  0
  -33.8387    1.0657   68.0399 H   0  0  0
  -34.7066    2.8846   67.3051 C   0  0  0
  -34.6096    2.6067   66.2600 H   0  0  0
  -35.2625    4.1010   67.6494 C   0  0  0
  -35.6006    4.7763   66.8694 H   0  0  0
  -35.3709    4.4676   68.9791 C   0  0  0
  -34.9738    3.5945   69.9800 C   0  0  0
  -35.0966    3.8293   71.0312 H   0  0  0
  -35.9339    5.7164   69.2433 O   0  0  0
  -35.2129    6.4442   70.2558 C   0  0  0
  -35.9006    6.6135   71.0913 H   0  0  0
  -34.3451    5.8947   70.6290 H   0  0  0
  -34.7457    7.7668   69.7004 C   0  0  0
  -34.5387    7.9376   68.3406 C   0  0  0
  -34.7228    7.0996   67.6823 H   0  0  0
  -34.1280    9.1454   67.7973 C   0  0  0
  -33.8738   10.2011   68.6618 C   0  0  0
  -34.0334   10.0372   70.0340 C   0  0  0
  -33.8348   10.8394   70.7346 H   0  0  0
  -34.4693    8.8299   70.5431 C   0  0  0
  -34.6017    8.7249   71.6161 H   0  0  0
  -33.4563   11.3961   68.0577 O   0  0  0
  -33.1018   12.4260   68.9846 C   0  0  0
  -33.9739   12.7661   69.5496 H   0  0  0
  -32.7325   13.2753   68.4077 H   0  0  0
  -32.2927   12.1038   69.6479 H   0  0  0
  -33.9833    9.3353   66.4001 N   0  0  0
  -33.6361   10.2472   66.1041 H   0  0  0
  -34.2458    8.2794   65.4020 C   0  0  2
  -33.6748    7.3782   65.6518 H   0  0  0
  -33.8069    8.7696   64.0303 C   0  0  0
  -34.3623    9.6658   63.7352 H   0  0  0
  -33.9672    8.0014   63.2673 H   0  0  0
  -32.7425    9.0253   64.0294 H   0  0  0
  -35.7311    7.9190   65.3318 C   0  0  0
  -36.1175    6.8451   64.8993 O   0  0  0
  -36.6001    8.8997   65.7313 N   0  0  0
  -37.6004    8.7283   65.7221 H   0  0  0
  -36.2622    9.7636   66.1404 H   0  0  0
  2  1  1
  2  3  2
  2 10  1
  3  4  1
  3  5  1
  5  6  1
  5  7  2
  7  8  1
  7  9  1
  9 10  2
  9 12  1
 10 11  1
 12 13  1
 13 14  1
 13 15  1
 13 16  1
 16 17  1
 16 23  2
 17 18  1
 17 19  2
 19 20  1
 19 30  1
 20 21  2
 20 25  1
 21 22  1
 21 23  1
 23 24  1
 25 26  1
 26 27  1
 26 28  1
 26 29  1
 30 31  1
 32 30  1
 32 33  1
 32 34  1
 32 38  1
 34 35  1
 34 36  1
 34 37  1
 38 39  2
 38 40  1
 40 41  1
 40 42  1
M  ZZC   1 f1
M  ZZC   2 c16
M  ZZC   3 c15
M  ZZC   4 h2
M  ZZC   5 c14
M  ZZC   6 h3
M  ZZC   7 c13
M  ZZC   8 h4
M  ZZC   9 c12
M  ZZC  10 c17
M  ZZC  11 h1
M  ZZC  12 o3
M  ZZC  13 c11
M  ZZC  14 h5
M  ZZC  15 h6
M  ZZC  16 c6
M  ZZC  17 c5
M  ZZC  18 h12
M  ZZC  19 c4
M  ZZC  20 c9
M  ZZC  21 c8
M  ZZC  22 h10
M  ZZC  23 c7
M  ZZC  24 h11
M  ZZC  25 o2
M  ZZC  26 c10
M  ZZC  27 h7
M  ZZC  28 h8
M  ZZC  29 h9
M  ZZC  30 n2
M  ZZC  31 h13
M  ZZC  32 c2
M  ZZC  33 h16
M  ZZC  34 c1
M  ZZC  35 h17
M  ZZC  36 h18
M  ZZC  37 h19
M  ZZC  38 c3
M  ZZC  39 o1
M  ZZC  40 n1
M  ZZC  41 h14
M  ZZC  42 h15
M  ZZM   1 11
M  ZZI   1 90
M  ZZM   2 37
M  ZZI   2 124
M  ZZM   3 37
M  ZZI   3 125
M  ZZM   4 5
M  ZZI   4 1
M  ZZM   5 37
M  ZZI   5 125
M  ZZM   6 5
M  ZZI   6 1
M  ZZM   7 37
M  ZZI   7 125
M  ZZM   8 5
M  ZZI   8 1
M  ZZM   9 37
M  ZZI   9 124
M  ZZM  10 37
M  ZZI  10 125
M  ZZM  11 5
M  ZZI  11 1
M  ZZM  12 6
M  ZZI  12 59
M  ZZM  13 1
M  ZZI  13 112
M  ZZM  14 5
M  ZZI  14 1
M  ZZM  15 5
M  ZZI  15 1
M  ZZM  16 37
M  ZZI  16 124
M  ZZM  17 37
M  ZZI  17 125
M  ZZM  18 5
M  ZZI  18 1
M  ZZM  19 37
M  ZZI  19 124
M  ZZM  20 37
M  ZZI  20 124
M  ZZM  21 37
M  ZZI  21 125
M  ZZM  22 5
M  ZZI  22 1
M  ZZM  23 37
M  ZZI  23 125
M  ZZM  24 5
M  ZZI  24 1
M  ZZM  25 6
M  ZZI  25 59
M  ZZM  26 1
M  ZZI  26 111
M  ZZM  27 5
M  ZZI  27 1
M  ZZM  28 5
M  ZZI  28 1
M  ZZM  29 5
M  ZZI  29 1
M  ZZM  30 40
M  ZZI  30 194
M  ZZM  31 28
M  ZZI  31 11
M  ZZM  32 1
M  ZZI  32 113
M  ZZM  33 5
M  ZZI  33 1
M  ZZM  34 1
M  ZZI  34 111
M  ZZM  35 5
M  ZZI  35 1
M  ZZM  36 5
M  ZZI  36 1
M  ZZM  37 5
M  ZZI  37 1
M  ZZM  38 3
M  ZZI  38 121
M  ZZM  39 7
M  ZZI  39 81
M  ZZM  40 10
M  ZZI  40 212
M  ZZM  41 28
M  ZZI  41 11
M  ZZM  42 28
M  ZZI  42 11
M  END
> <NAME>
Z924392786

> <Score>
-26.046864

> <Natom>
42

> <Nflex>
4

> <Hbond>
-3.864311

> <Hphob>
-6.660647

> <VwInt>
-27.768744

> <Eintl>
6.406013

> <Dsolv>
11.477539

> <SolEl>
7.504644

> <mfScore>
-72.590501

> <RecConf>
1

> <molLogP>
2.803425

$$$$
Z1591159826
  MOLSOFT 11211612053D

 42 44  0  0  0  0  0  0  0  0999 V2000
  -36.2748    4.2162   65.5959 H   0  0  0
  -35.3853    3.9758   66.1837 C   0  0  0
  -35.3391    2.8876   66.2846 H   0  0  0
  -34.5022    4.2911   65.6288 H   0  0  0
  -35.4192    4.6373   67.5057 C   0  0  0
  -35.8609    5.9311   67.7616 C   0  0  0
  -35.7874    6.2984   69.4445 S   0  0  0
  -35.1460    4.7600   69.8209 C   0  0  0
  -34.9132    4.5021   70.8439 H   0  0  0
  -34.9980    3.9834   68.6980 C   0  0  0
  -34.6130    2.9734   68.7383 H   0  0  0
  -36.4324    6.9627   66.8395 C   0  0  0
  -37.2858    6.5480   66.2942 H   0  0  0
  -36.8009    7.8346   67.3813 H   0  0  0
  -35.4741    7.4497   65.8426 N   0  0  0
  -34.6862    8.5884   65.8903 C   0  0  0
  -34.0406    8.6325   64.6744 C   0  0  0
  -33.3165    9.3584   64.3351 H   0  0  0
  -34.5501    7.5459   63.9435 C   0  0  0
  -34.3022    7.2463   62.9343 H   0  0  0
  -35.4782    6.8641   64.6219 N   0  0  0
  -34.6528    9.4566   66.9742 N   0  0  0
  -35.1617    9.2136   67.8232 H   0  0  0
  -33.9843   10.6766   66.9217 C   0  0  0
  -33.2517   11.0691   66.0225 O   0  0  0
  -34.2858   11.5464   68.1258 C   0  0  0
  -34.1282   12.5962   67.8601 H   0  0  0
  -35.3401   11.4169   68.3868 H   0  0  0
  -33.4663   11.1910   69.2802 N   0  0  0
  -32.3917   11.9789   69.6067 C   0  0  0
  -32.1730   12.8151   68.9505 H   0  0  0
  -31.6513   11.7295   70.6851 C   0  0  0
  -30.8013   12.3531   70.9384 H   0  0  0
  -31.9703   10.6178   71.5217 C   0  0  0
  -31.3364   10.4443   72.3851 H   0  0  0
  -33.0075    9.8151   71.2474 C   0  0  0
  -33.3850    8.6335   72.0819 C   0  0  0
  -33.3242    7.7124   71.4947 H   0  0  0
  -34.4057    8.7378   72.4621 H   0  0  0
  -32.7187    8.5216   72.9424 H   0  0  0
  -33.8450   10.1003   70.0466 C   0  0  0
  -34.8025    9.3907   69.7718 O   0  0  0
  2  1  1
  2  3  1
  2  4  1
  2  5  1
  5  6  2
  5 10  1
  6  7  1
  6 12  1
  7  8  1
  8  9  1
  8 10  2
 10 11  1
 12 13  1
 12 14  1
 12 15  1
 15 16  1
 15 21  1
 16 17  2
 16 22  1
 17 18  1
 17 19  1
 19 20  1
 19 21  2
 22 23  1
 22 24  1
 24 25  2
 24 26  1
 26 27  1
 26 28  1
 26 29  1
 29 30  1
 29 41  1
 30 31  1
 30 32  2
 32 33  1
 32 34  1
 34 35  1
 34 36  2
 36 37  1
 36 41  1
 37 38  1
 37 39  1
 37 40  1
 41 42  2
M  ZZC   1 h1
M  ZZC   2 c17
M  ZZC   3 h2
M  ZZC   4 h3
M  ZZC   5 c14
M  ZZC   6 c13
M  ZZC   7 s1
M  ZZC   8 c16
M  ZZC   9 h4
M  ZZC  10 c15
M  ZZC  11 h5
M  ZZC  12 c12
M  ZZC  13 h6
M  ZZC  14 h7
M  ZZC  15 n4
M  ZZC  16 c9
M  ZZC  17 c10
M  ZZC  18 h9
M  ZZC  19 c11
M  ZZC  20 h8
M  ZZC  21 n3
M  ZZC  22 n2
M  ZZC  23 h10
M  ZZC  24 c8
M  ZZC  25 o2
M  ZZC  26 c7
M  ZZC  27 h11
M  ZZC  28 h12
M  ZZC  29 n1
M  ZZC  30 c5
M  ZZC  31 h13
M  ZZC  32 c4
M  ZZC  33 h14
M  ZZC  34 c3
M  ZZC  35 h15
M  ZZC  36 c2
M  ZZC  37 c1
M  ZZC  38 h16
M  ZZC  39 h17
M  ZZC  40 h18
M  ZZC  41 c6
M  ZZC  42 o1
M  ZZM   1 5
M  ZZI   1 1
M  ZZM   2 1
M  ZZI   2 111
M  ZZM   3 5
M  ZZI   3 1
M  ZZM   4 5
M  ZZI   4 1
M  ZZM   5 64
M  ZZI   5 105
M  ZZM   6 63
M  ZZI   6 104
M  ZZM   7 44
M  ZZI   7 248
M  ZZM   8 63
M  ZZI   8 104
M  ZZM   9 5
M  ZZI   9 1
M  ZZM  10 64
M  ZZI  10 105
M  ZZM  11 5
M  ZZI  11 1
M  ZZM  12 1
M  ZZI  12 112
M  ZZM  13 5
M  ZZI  13 1
M  ZZM  14 5
M  ZZI  14 1
M  ZZM  15 39
M  ZZI  15 215
M  ZZM  16 63
M  ZZI  16 104
M  ZZM  17 64
M  ZZI  17 105
M  ZZM  18 5
M  ZZI  18 1
M  ZZM  19 64
M  ZZI  19 105
M  ZZM  20 5
M  ZZI  20 1
M  ZZM  21 65
M  ZZI  21 207
M  ZZM  22 10
M  ZZI  22 191
M  ZZM  23 28
M  ZZI  23 11
M  ZZM  24 3
M  ZZI  24 121
M  ZZM  25 7
M  ZZI  25 81
M  ZZM  26 1
M  ZZI  26 112
M  ZZM  27 5
M  ZZI  27 1
M  ZZM  28 5
M  ZZI  28 1
M  ZZM  29 10
M  ZZI  29 192
M  ZZM  30 2
M  ZZI  30 120
M  ZZM  31 5
M  ZZI  31 1
M  ZZM  32 2
M  ZZI  32 120
M  ZZM  33 5
M  ZZI  33 1
M  ZZM  34 2
M  ZZI  34 120
M  ZZM  35 5
M  ZZI  35 1
M  ZZM  36 2
M  ZZI  36 120
M  ZZM  37 1
M  ZZI  37 111
M  ZZM  38 5
M  ZZI  38 1
M  ZZM  39 5
M  ZZI  39 1
M  ZZM  40 5
M  ZZI  40 1
M  ZZM  41 3
M  ZZI  41 121
M  ZZM  42 7
M  ZZI  42 81
M  END
> <NAME>
Z1591159826

> <Score>
-26.040262

> <Natom>
42

> <Nflex>
4

> <Hbond>
-2.899878

> <Hphob>
-6.910878

> <VwInt>
-27.117084

> <Eintl>
5.006644

> <Dsolv>
9.385162

> <SolEl>
5.462014

> <mfScore>
-68.758119

> <RecConf>
1

> <molLogP>
1.542532

$$$$
Z152131204
  MOLSOFT 11211612053D

 42 44  0  0  0  0  0  0  0  0999 V2000
  -30.9981    8.2729   70.1756 O   0  0  0
  -31.8580    8.8539   70.8283 C   0  0  0
  -32.5326    8.2135   72.0148 C   0  0  0
  -31.9083    8.3309   72.9055 H   0  0  0
  -33.5227    8.6455   72.1885 H   0  0  0
  -32.6842    7.1508   71.8082 H   0  0  0
  -32.2786   10.2359   70.4643 C   0  0  0
  -32.6883   11.0951   71.4760 C   0  0  0
  -32.6493   10.8087   72.5223 H   0  0  0
  -33.1674   12.3431   71.1546 C   0  0  0
  -33.5088   13.0145   71.9369 H   0  0  0
  -33.2328   12.7300   69.8352 C   0  0  0
  -33.6388   13.6931   69.5737 H   0  0  0
  -32.8007   11.9054   68.8276 C   0  0  0
  -32.8627   12.2721   67.8102 H   0  0  0
  -32.3147   10.6463   69.1273 C   0  0  0
  -31.9254    9.7520   68.1068 N   0  0  0
  -31.5937    8.8448   68.4305 H   0  0  0
  -32.1036    9.9332   66.7398 C   0  0  0
  -32.5154   10.9388   66.1745 O   0  0  0
  -31.8680    8.6380   65.9934 C   0  0  0
  -31.1540    8.0086   66.5319 H   0  0  0
  -31.4919    8.8468   64.9868 H   0  0  0
  -33.1610    7.9749   65.9323 N   0  0  0
  -33.9087    7.8246   64.7976 C   0  0  0
  -33.6959    8.1692   63.6435 O   0  0  0
  -35.1429    7.0970   65.2433 C   0  0  0
  -36.0639    6.8140   64.4956 O   0  0  0
  -34.9882    6.8761   66.5806 N   0  0  0
  -33.8113    7.4193   67.0061 C   0  0  0
  -33.4194    7.4294   68.1615 O   0  0  0
  -35.9588    6.2096   67.4278 C   0  0  0
  -36.9125    6.1245   66.8962 H   0  0  0
  -36.1144    6.8305   68.3163 H   0  0  0
  -35.4506    4.8674   67.8245 C   0  0  0
  -35.1861    4.3979   69.0963 C   0  0  0
  -35.3308    4.9901   69.9897 H   0  0  0
  -34.6958    3.0686   69.0970 C   0  0  0
  -34.4218    2.5151   69.9840 H   0  0  0
  -34.5964    2.5480   67.8277 C   0  0  0
  -34.2500    1.5666   67.5403 H   0  0  0
  -35.1195    3.6616   66.6324 S   0  0  0
  2  1  2
  2  3  1
  2  7  1
  3  4  1
  3  5  1
  3  6  1
  7  8  2
  7 16  1
  8  9  1
  8 10  1
 10 11  1
 10 12  2
 12 13  1
 12 14  1
 14 15  1
 14 16  2
 16 17  1
 17 18  1
 17 19  1
 19 20  2
 19 21  1
 21 22  1
 21 23  1
 21 24  1
 24 25  1
 24 30  1
 25 26  2
 25 27  1
 27 28  2
 27 29  1
 29 30  1
 29 32  1
 30 31  2
 32 33  1
 32 34  1
 32 35  1
 35 36  2
 35 42  1
 36 37  1
 36 38  1
 38 39  1
 38 40  2
 40 41  1
 40 42  1
M  ZZC   1 o1
M  ZZC   2 c2
M  ZZC   3 c1
M  ZZC   4 h13
M  ZZC   5 h14
M  ZZC   6 h15
M  ZZC   7 c3
M  ZZC   8 c4
M  ZZC   9 h12
M  ZZC  10 c5
M  ZZC  11 h11
M  ZZC  12 c6
M  ZZC  13 h10
M  ZZC  14 c7
M  ZZC  15 h9
M  ZZC  16 c8
M  ZZC  17 n1
M  ZZC  18 h8
M  ZZC  19 c9
M  ZZC  20 o2
M  ZZC  21 c10
M  ZZC  22 h6
M  ZZC  23 h7
M  ZZC  24 n2
M  ZZC  25 c11
M  ZZC  26 o3
M  ZZC  27 c12
M  ZZC  28 o4
M  ZZC  29 n3
M  ZZC  30 c13
M  ZZC  31 o5
M  ZZC  32 c14
M  ZZC  33 h4
M  ZZC  34 h5
M  ZZC  35 c15
M  ZZC  36 c16
M  ZZC  37 h3
M  ZZC  38 c17
M  ZZC  39 h2
M  ZZC  40 c18
M  ZZC  41 h1
M  ZZC  42 s1
M  ZZM   1 7
M  ZZI   1 80
M  ZZM   2 3
M  ZZI   2 122
M  ZZM   3 1
M  ZZI   3 111
M  ZZM   4 5
M  ZZI   4 1
M  ZZM   5 5
M  ZZI   5 1
M  ZZM   6 5
M  ZZI   6 1
M  ZZM   7 37
M  ZZI   7 124
M  ZZM   8 37
M  ZZI   8 125
M  ZZM   9 5
M  ZZI   9 1
M  ZZM  10 37
M  ZZI  10 125
M  ZZM  11 5
M  ZZI  11 1
M  ZZM  12 37
M  ZZI  12 125
M  ZZM  13 5
M  ZZI  13 1
M  ZZM  14 37
M  ZZI  14 125
M  ZZM  15 5
M  ZZI  15 1
M  ZZM  16 37
M  ZZI  16 124
M  ZZM  17 10
M  ZZI  17 191
M  ZZM  18 28
M  ZZI  18 11
M  ZZM  19 3
M  ZZI  19 121
M  ZZM  20 7
M  ZZI  20 81
M  ZZM  21 1
M  ZZI  21 112
M  ZZM  22 5
M  ZZI  22 1
M  ZZM  23 5
M  ZZI  23 1
M  ZZM  24 10
M  ZZI  24 192
M  ZZM  25 3
M  ZZI  25 121
M  ZZM  26 7
M  ZZI  26 81
M  ZZM  27 3
M  ZZI  27 121
M  ZZM  28 7
M  ZZI  28 81
M  ZZM  29 10
M  ZZI  29 192
M  ZZM  30 3
M  ZZI  30 121
M  ZZM  31 7
M  ZZI  31 81
M  ZZM  32 1
M  ZZI  32 112
M  ZZM  33 5
M  ZZI  33 1
M  ZZM  34 5
M  ZZI  34 1
M  ZZM  35 63
M  ZZI  35 104
M  ZZM  36 64
M  ZZI  36 105
M  ZZM  37 5
M  ZZI  37 1
M  ZZM  38 64
M  ZZI  38 105
M  ZZM  39 5
M  ZZI  39 1
M  ZZM  40 63
M  ZZI  40 104
M  ZZM  41 5
M  ZZI  41 1
M  ZZM  42 44
M  ZZI  42 248
M  END
> <NAME>
Z152131204

> <Score>
-25.8988

> <Natom>
42

> <Nflex>
4

> <Hbond>
-4.43746

> <Hphob>
-6.001861

> <VwInt>
-26.701264

> <Eintl>
7.72348

> <Dsolv>
14.326211

> <SolEl>
4.402768

> <mfScore>
-90.879129

> <RecConf>
1

> <molLogP>
1.256388

$$$$
Z25885064
  MOLSOFT 11211612053D

 42 44  0  0  0  0  0  0  0  0999 V2000
  -35.8686    3.5776   71.1650 Cl  0  0  0
  -35.4060    3.5260   69.4991 C   0  0  0
  -34.7051    2.4454   68.9826 C   0  0  0
  -34.2658    1.1038   69.9810 Cl  0  0  0
  -34.3415    2.4255   67.6499 C   0  0  0
  -33.7870    1.5863   67.2431 H   0  0  0
  -34.6756    3.4830   66.8285 C   0  0  0
  -34.3847    3.4535   65.7836 H   0  0  0
  -35.3645    4.5648   67.3533 C   0  0  0
  -35.7438    4.5914   68.6845 C   0  0  0
  -36.2822    5.4420   69.0933 H   0  0  0
  -35.6590    5.7353   66.5051 C   0  0  0
  -36.3099    6.5259   66.9191 H   0  0  0
  -35.1183    5.8599   65.3355 N   0  0  0
  -35.4937    7.0992   64.7983 O   0  0  0
  -34.4842    7.5174   63.8679 C   0  0  0
  -34.8362    8.4384   63.3977 H   0  0  0
  -34.3748    6.7700   63.0773 H   0  0  0
  -33.1439    7.7740   64.5511 C   0  0  0
  -32.4565    8.2349   63.8344 H   0  0  0
  -32.6969    6.8215   64.8453 H   0  0  0
  -33.2936    8.6486   65.7907 C   0  0  0
  -33.8250    9.5675   65.5214 H   0  0  0
  -33.9136    8.1464   66.5397 H   0  0  0
  -31.9467    8.9885   66.4186 C   0  0  0
  -31.3632    9.5971   65.7247 H   0  0  0
  -31.3795    8.0813   66.6446 H   0  0  0
  -32.1292    9.7499   67.6400 N   0  0  0
  -32.6209   11.0367   67.6655 C   0  0  0
  -32.9223   11.7664   66.7300 O   0  0  0
  -32.7286   11.3901   69.0800 C   0  0  0
  -32.2676   10.3468   69.8197 C   0  0  0
  -31.8644    9.2831   68.9109 C   0  0  0
  -31.3999    8.2180   69.2928 O   0  0  0
  -32.2378   10.3620   71.1969 C   0  0  0
  -31.8677    9.5185   71.7722 H   0  0  0
  -32.7133   11.5071   71.8103 C   0  0  0
  -32.7201   11.5730   72.8940 H   0  0  0
  -33.1924   12.5714   71.0569 C   0  0  0
  -33.5727   13.4454   71.5739 H   0  0  0
  -33.2098   12.5344   69.6699 C   0  0  0
  -33.5915   13.3571   69.0764 H   0  0  0
  2  1  1
  2  3  1
  2 10  2
  3  4  1
  3  5  2
  5  6  1
  5  7  1
  7  8  1
  7  9  2
  9 10  1
  9 12  1
 10 11  1
 12 13  1
 12 14  2
 14 15  1
 15 16  1
 16 17  1
 16 18  1
 16 19  1
 19 20  1
 19 21  1
 19 22  1
 22 23  1
 22 24  1
 22 25  1
 25 26  1
 25 27  1
 25 28  1
 28 29  1
 28 33  1
 29 30  2
 29 31  1
 31 32  2
 31 41  1
 32 33  1
 32 35  1
 33 34  2
 35 36  1
 35 37  2
 37 38  1
 37 39  1
 39 40  1
 39 41  2
 41 42  1
M  ZZC   1 &Cl1
M  ZZC   2 c18
M  ZZC   3 c17
M  ZZC   4 &Cl2
M  ZZC   5 c16
M  ZZC   6 h2
M  ZZC   7 c15
M  ZZC   8 h3
M  ZZC   9 c14
M  ZZC  10 c19
M  ZZC  11 h1
M  ZZC  12 c13
M  ZZC  13 h4
M  ZZC  14 n2
M  ZZC  15 o3
M  ZZC  16 c12
M  ZZC  17 h5
M  ZZC  18 h6
M  ZZC  19 c11
M  ZZC  20 h7
M  ZZC  21 h8
M  ZZC  22 c10
M  ZZC  23 h10
M  ZZC  24 h9
M  ZZC  25 c9
M  ZZC  26 h11
M  ZZC  27 h12
M  ZZC  28 n1
M  ZZC  29 c7
M  ZZC  30 o1
M  ZZC  31 c5
M  ZZC  32 c4
M  ZZC  33 c8
M  ZZC  34 o2
M  ZZC  35 c3
M  ZZC  36 h14
M  ZZC  37 c2
M  ZZC  38 h15
M  ZZC  39 c1
M  ZZC  40 h16
M  ZZC  41 c6
M  ZZC  42 h13
M  ZZM   1 12
M  ZZI   1 92
M  ZZM   2 37
M  ZZI   2 124
M  ZZM   3 37
M  ZZI   3 124
M  ZZM   4 12
M  ZZI   4 92
M  ZZM   5 37
M  ZZI   5 125
M  ZZM   6 5
M  ZZI   6 1
M  ZZM   7 37
M  ZZI   7 125
M  ZZM   8 5
M  ZZI   8 1
M  ZZM   9 37
M  ZZI   9 124
M  ZZM  10 37
M  ZZI  10 125
M  ZZM  11 5
M  ZZI  11 1
M  ZZM  12 3
M  ZZI  12 121
M  ZZM  13 5
M  ZZI  13 1
M  ZZM  14 9
M  ZZI  14 220
M  ZZM  15 6
M  ZZI  15 65
M  ZZM  16 1
M  ZZI  16 112
M  ZZM  17 5
M  ZZI  17 1
M  ZZM  18 5
M  ZZI  18 1
M  ZZM  19 1
M  ZZI  19 112
M  ZZM  20 5
M  ZZI  20 1
M  ZZM  21 5
M  ZZI  21 1
M  ZZM  22 1
M  ZZI  22 112
M  ZZM  23 5
M  ZZI  23 1
M  ZZM  24 5
M  ZZI  24 1
M  ZZM  25 1
M  ZZI  25 112
M  ZZM  26 5
M  ZZI  26 1
M  ZZM  27 5
M  ZZI  27 1
M  ZZM  28 10
M  ZZI  28 192
M  ZZM  29 3
M  ZZI  29 121
M  ZZM  30 7
M  ZZI  30 81
M  ZZM  31 37
M  ZZI  31 124
M  ZZM  32 37
M  ZZI  32 124
M  ZZM  33 3
M  ZZI  33 121
M  ZZM  34 7
M  ZZI  34 81
M  ZZM  35 37
M  ZZI  35 125
M  ZZM  36 5
M  ZZI  36 1
M  ZZM  37 37
M  ZZI  37 125
M  ZZM  38 5
M  ZZI  38 1
M  ZZM  39 37
M  ZZI  39 125
M  ZZM  40 5
M  ZZI  40 1
M  ZZM  41 37
M  ZZI  41 125
M  ZZM  42 5
M  ZZI  42 1
M  END
> <NAME>
Z25885064

> <Score>
-25.801956

> <Natom>
42

> <Nflex>
5

> <Hbond>
-3.893274

> <Hphob>
-6.155634

> <VwInt>
-28.736607

> <Eintl>
7.963264

> <Dsolv>
13.303053

> <SolEl>
5.956999

> <mfScore>
-86.35004

> <RecConf>
1

> <molLogP>
5.934131

$$$$
Z167529242
  MOLSOFT 11211612053D

 42 43  0  0  0  0  0  0  0  0999 V2000
  -32.1679   11.4203   73.0498 F   0  0  0
  -31.9844   11.0350   71.7772 C   0  0  0
  -31.0591   10.0549   71.4949 C   0  0  0
  -30.4842    9.6017   72.2952 H   0  0  0
  -30.8749    9.6629   70.1852 C   0  0  0
  -30.1451    8.8959   69.9454 H   0  0  0
  -31.6145   10.2517   69.1770 C   0  0  0
  -31.4332    9.9353   68.1544 H   0  0  0
  -32.5601   11.2332   69.4618 C   0  0  0
  -32.7268   11.6280   70.7807 C   0  0  0
  -33.4351   12.4068   71.0446 H   0  0  0
  -33.3464   11.9285   68.3802 C   0  0  0
  -34.3275   12.2431   68.7447 H   0  0  0
  -32.8202   12.8520   68.1189 H   0  0  0
  -33.5163   11.1327   67.0988 C   0  0  0
  -32.8094   11.3994   66.1383 O   0  0  0
  -34.5031   10.1490   67.0338 N   0  0  0
  -34.7325    9.5266   65.7334 C   0  0  0
  -34.6144   10.2938   64.9603 H   0  0  0
  -35.7795    9.2135   65.6706 H   0  0  0
  -33.7712    8.3823   65.4286 C   0  0  0
  -32.7494    8.7523   65.2926 H   0  0  0
  -33.7386    7.6376   66.2278 H   0  0  0
  -34.2669    7.7121   64.1781 C   0  0  0
  -35.3729    7.1991   64.1102 O   0  0  0
  -33.3971    7.7812   63.1264 N   0  0  0
  -33.6848    7.4507   62.2130 H   0  0  0
  -32.4591    8.1583   63.2007 H   0  0  0
  -35.4090    9.7849   68.1280 C   0  0  0
  -35.2656   10.4579   68.9716 H   0  0  0
  -36.4260    9.9702   67.7774 H   0  0  0
  -35.3132    8.3622   68.6248 C   0  0  0
  -35.9308    7.3134   67.9500 C   0  0  0
  -36.4818    7.4928   67.0316 H   0  0  0
  -35.8685    6.0235   68.4356 C   0  0  0
  -36.3462    5.2165   67.8902 H   0  0  0
  -35.2110    5.7590   69.6167 C   0  0  0
  -35.1715    4.7454   70.0030 H   0  0  0
  -34.6096    6.7900   70.3064 C   0  0  0
  -34.0974    6.5888   71.2419 H   0  0  0
  -34.6530    8.0773   69.8116 C   0  0  0
  -34.1813    8.8688   70.3831 H   0  0  0
  2  1  1
  2  3  1
  2 10  2
  3  4  1
  3  5  2
  5  6  1
  5  7  1
  7  8  1
  7  9  2
  9 10  1
  9 12  1
 10 11  1
 12 13  1
 12 14  1
 12 15  1
 15 16  2
 15 17  1
 17 18  1
 17 29  1
 18 19  1
 18 20  1
 18 21  1
 21 22  1
 21 23  1
 21 24  1
 24 25  2
 24 26  1
 26 27  1
 26 28  1
 29 30  1
 29 31  1
 29 32  1
 32 33  1
 32 41  2
 33 34  1
 33 35  2
 35 36  1
 35 37  1
 37 38  1
 37 39  2
 39 40  1
 39 41  1
 41 42  1
M  ZZC   1 f1
M  ZZC   2 c17
M  ZZC   3 c16
M  ZZC   4 h2
M  ZZC   5 c15
M  ZZC   6 h3
M  ZZC   7 c14
M  ZZC   8 h4
M  ZZC   9 c13
M  ZZC  10 c18
M  ZZC  11 h1
M  ZZC  12 c12
M  ZZC  13 h5
M  ZZC  14 h6
M  ZZC  15 c11
M  ZZC  16 o2
M  ZZC  17 n1
M  ZZC  18 c8
M  ZZC  19 h11
M  ZZC  20 h12
M  ZZC  21 c9
M  ZZC  22 h10
M  ZZC  23 h9
M  ZZC  24 c10
M  ZZC  25 o1
M  ZZC  26 n2
M  ZZC  27 h7
M  ZZC  28 h8
M  ZZC  29 c7
M  ZZC  30 h13
M  ZZC  31 h14
M  ZZC  32 c4
M  ZZC  33 c3
M  ZZC  34 h17
M  ZZC  35 c2
M  ZZC  36 h18
M  ZZC  37 c1
M  ZZC  38 h19
M  ZZC  39 c6
M  ZZC  40 h15
M  ZZC  41 c5
M  ZZC  42 h16
M  ZZM   1 11
M  ZZI   1 90
M  ZZM   2 37
M  ZZI   2 124
M  ZZM   3 37
M  ZZI   3 125
M  ZZM   4 5
M  ZZI   4 1
M  ZZM   5 37
M  ZZI   5 125
M  ZZM   6 5
M  ZZI   6 1
M  ZZM   7 37
M  ZZI   7 125
M  ZZM   8 5
M  ZZI   8 1
M  ZZM   9 37
M  ZZI   9 124
M  ZZM  10 37
M  ZZI  10 125
M  ZZM  11 5
M  ZZI  11 1
M  ZZM  12 1
M  ZZI  12 112
M  ZZM  13 5
M  ZZI  13 1
M  ZZM  14 5
M  ZZI  14 1
M  ZZM  15 3
M  ZZI  15 121
M  ZZM  16 7
M  ZZI  16 81
M  ZZM  17 10
M  ZZI  17 192
M  ZZM  18 1
M  ZZI  18 112
M  ZZM  19 5
M  ZZI  19 1
M  ZZM  20 5
M  ZZI  20 1
M  ZZM  21 1
M  ZZI  21 112
M  ZZM  22 5
M  ZZI  22 1
M  ZZM  23 5
M  ZZI  23 1
M  ZZM  24 3
M  ZZI  24 121
M  ZZM  25 7
M  ZZI  25 81
M  ZZM  26 10
M  ZZI  26 212
M  ZZM  27 28
M  ZZI  27 11
M  ZZM  28 28
M  ZZI  28 11
M  ZZM  29 1
M  ZZI  29 112
M  ZZM  30 5
M  ZZI  30 1
M  ZZM  31 5
M  ZZI  31 1
M  ZZM  32 37
M  ZZI  32 124
M  ZZM  33 37
M  ZZI  33 125
M  ZZM  34 5
M  ZZI  34 1
M  ZZM  35 37
M  ZZI  35 125
M  ZZM  36 5
M  ZZI  36 1
M  ZZM  37 37
M  ZZI  37 125
M  ZZM  38 5
M  ZZI  38 1
M  ZZM  39 37
M  ZZI  39 125
M  ZZM  40 5
M  ZZI  40 1
M  ZZM  41 37
M  ZZI  41 125
M  ZZM  42 5
M  ZZI  42 1
M  END
> <NAME>
Z167529242

> <Score>
-25.718622

> <Natom>
42

> <Nflex>
8

> <Hbond>
-5.604455

> <Hphob>
-6.183838

> <VwInt>
-26.44974

> <Eintl>
5.936034

> <Dsolv>
13.288989

> <SolEl>
6.495181

> <mfScore>
-72.140667

> <RecConf>
1

> <molLogP>
2.362531

$$$$
Z26027110
  MOLSOFT 11211612053D

 42 43  0  0  0  0  0  0  0  0999 V2000
  -33.7468    0.7441   69.2264 N   0  0  0
  -34.1965    1.7164   68.7800 C   0  0  0
  -34.7269    2.9310   68.2399 C   0  0  0
  -35.0701    3.9778   69.0763 C   0  0  0
  -34.9448    3.8882   70.1516 H   0  0  0
  -35.5781    5.1504   68.5517 C   0  0  0
  -35.8428    5.9603   69.2255 H   0  0  0
  -35.7464    5.2961   67.1828 C   0  0  0
  -35.4196    4.2316   66.3567 C   0  0  0
  -35.5677    4.3113   65.2866 H   0  0  0
  -34.9058    3.0622   66.8750 C   0  0  0
  -34.6526    2.2473   66.2030 H   0  0  0
  -36.3162    6.5685   66.6096 C   0  0  0
  -37.3873    6.4381   66.4349 H   0  0  0
  -36.1942    7.4095   67.3012 H   0  0  0
  -35.6941    6.8921   65.3579 O   0  0  0
  -34.4781    7.5444   65.6405 N   0  0  0
  -33.8816    7.8830   64.5437 C   0  0  0
  -34.3479    7.6274   63.2820 N   0  0  0
  -33.8695    7.9160   62.4307 H   0  0  0
  -35.2240    7.1284   63.1812 H   0  0  0
  -32.5706    8.6046   64.6782 C   0  0  0
  -32.2891    9.0589   63.7222 H   0  0  0
  -31.7969    7.8725   64.9304 H   0  0  0
  -32.6312    9.6800   65.7342 C   0  0  0
  -32.9914   10.8107   65.4453 O   0  0  0
  -32.2640    9.2362   66.9927 N   0  0  0
  -31.9034    8.2929   67.0807 H   0  0  0
  -32.3073   10.0112   68.1763 C   0  0  0
  -32.8813   11.2739   68.2411 C   0  0  0
  -33.3320   11.7412   67.3742 H   0  0  0
  -32.8950   11.9703   69.4327 C   0  0  0
  -33.3437   12.9585   69.4614 H   0  0  0
  -32.3471   11.4212   70.5799 C   0  0  0
  -32.3401   12.2015   71.8595 C   0  0  0
  -31.6719   13.0638   71.7745 H   0  0  0
  -31.9930   11.5854   72.6940 H   0  0  0
  -33.3503   12.5440   72.1027 H   0  0  0
  -31.7770   10.1601   70.5130 C   0  0  0
  -31.3301    9.7123   71.3954 H   0  0  0
  -31.7674    9.4584   69.3239 C   0  0  0
  -31.3168    8.4721   69.2981 H   0  0  0
  2  1  3
  2  3  1
  3  4  2
  3 11  1
  4  5  1
  4  6  1
  6  7  1
  6  8  2
  8  9  1
  8 13  1
  9 10  1
  9 11  2
 11 12  1
 13 14  1
 13 15  1
 13 16  1
 16 17  1
 17 18  2
 18 19  1
 18 22  1
 19 20  1
 19 21  1
 22 23  1
 22 24  1
 22 25  1
 25 26  2
 25 27  1
 27 28  1
 27 29  1
 29 30  2
 29 41  1
 30 31  1
 30 32  1
 32 33  1
 32 34  2
 34 35  1
 34 39  1
 35 36  1
 35 37  1
 35 38  1
 39 40  1
 39 41  2
 41 42  1
M  ZZC   1 n3
M  ZZC   2 c18
M  ZZC   3 c15
M  ZZC   4 c14
M  ZZC   5 h5
M  ZZC   6 c13
M  ZZC   7 h6
M  ZZC   8 c12
M  ZZC   9 c17
M  ZZC  10 h3
M  ZZC  11 c16
M  ZZC  12 h4
M  ZZC  13 c11
M  ZZC  14 h7
M  ZZC  15 h8
M  ZZC  16 o2
M  ZZC  17 n2
M  ZZC  18 c10
M  ZZC  19 n4
M  ZZC  20 h1
M  ZZC  21 h2
M  ZZC  22 c9
M  ZZC  23 h10
M  ZZC  24 h9
M  ZZC  25 c8
M  ZZC  26 o1
M  ZZC  27 n1
M  ZZC  28 h11
M  ZZC  29 c5
M  ZZC  30 c4
M  ZZC  31 h14
M  ZZC  32 c3
M  ZZC  33 h15
M  ZZC  34 c2
M  ZZC  35 c1
M  ZZC  36 h16
M  ZZC  37 h17
M  ZZC  38 h18
M  ZZC  39 c7
M  ZZC  40 h12
M  ZZC  41 c6
M  ZZC  42 h13
M  ZZM   1 42
M  ZZI   1 225
M  ZZM   2 4
M  ZZI   2 130
M  ZZM   3 37
M  ZZI   3 124
M  ZZM   4 37
M  ZZI   4 125
M  ZZM   5 5
M  ZZI   5 1
M  ZZM   6 37
M  ZZI   6 125
M  ZZM   7 5
M  ZZI   7 1
M  ZZM   8 37
M  ZZI   8 124
M  ZZM   9 37
M  ZZI   9 125
M  ZZM  10 5
M  ZZI  10 1
M  ZZM  11 37
M  ZZI  11 125
M  ZZM  12 5
M  ZZI  12 1
M  ZZM  13 1
M  ZZI  13 112
M  ZZM  14 5
M  ZZI  14 1
M  ZZM  15 5
M  ZZI  15 1
M  ZZM  16 6
M  ZZI  16 65
M  ZZM  17 9
M  ZZI  17 220
M  ZZM  18 3
M  ZZI  18 121
M  ZZM  19 40
M  ZZI  19 224
M  ZZM  20 28
M  ZZI  20 11
M  ZZM  21 28
M  ZZI  21 11
M  ZZM  22 1
M  ZZI  22 112
M  ZZM  23 5
M  ZZI  23 1
M  ZZM  24 5
M  ZZI  24 1
M  ZZM  25 3
M  ZZI  25 121
M  ZZM  26 7
M  ZZI  26 81
M  ZZM  27 10
M  ZZI  27 191
M  ZZM  28 28
M  ZZI  28 11
M  ZZM  29 37
M  ZZI  29 124
M  ZZM  30 37
M  ZZI  30 125
M  ZZM  31 5
M  ZZI  31 1
M  ZZM  32 37
M  ZZI  32 125
M  ZZM  33 5
M  ZZI  33 1
M  ZZM  34 37
M  ZZI  34 124
M  ZZM  35 1
M  ZZI  35 111
M  ZZM  36 5
M  ZZI  36 1
M  ZZM  37 5
M  ZZI  37 1
M  ZZM  38 5
M  ZZI  38 1
M  ZZM  39 37
M  ZZI  39 125
M  ZZM  40 5
M  ZZI  40 1
M  ZZM  41 37
M  ZZI  41 125
M  ZZM  42 5
M  ZZI  42 1
M  END
> <NAME>
Z26027110

> <Score>
-25.669188

> <Natom>
42

> <Nflex>
5

> <Hbond>
-5.060656

> <Hphob>
-6.039662

> <VwInt>
-30.17807

> <Eintl>
5.88362

> <Dsolv>
14.76854

> <SolEl>
11.034106

> <mfScore>
-103.959009

> <RecConf>
1

> <molLogP>
2.792515

$$$$
Z15659975
  MOLSOFT 11211612053D

 42 43  0  0  0  0  0  0  0  0999 V2000
  -32.8074   11.3387   66.0849 O   0  0  0
  -32.7052   10.2810   66.6888 C   0  0  0
  -32.0665    9.0579   66.0703 C   0  0  0
  -32.7330    8.6254   65.3186 H   0  0  0
  -31.8284    8.3074   66.8288 H   0  0  0
  -31.1221    9.3406   65.6027 H   0  0  0
  -33.2188   10.1959   68.0741 C   0  0  0
  -32.9578   11.2553   68.9296 C   0  0  0
  -32.4329   12.1397   68.5755 H   0  0  0
  -33.3218   11.1524   70.2578 C   0  0  0
  -32.9329   12.4334   71.3443 Cl  0  0  0
  -33.9627   10.0243   70.7359 C   0  0  0
  -34.2232    9.9469   71.7872 H   0  0  0
  -34.2620    8.9896   69.8704 C   0  0  0
  -35.0419    7.5721   70.4824 Cl  0  0  0
  -33.9161    9.0814   68.5309 C   0  0  0
  -34.2032    8.0133   67.6849 O   0  0  0
  -35.3669    8.2963   66.8795 C   0  0  0
  -36.2184    8.5948   67.4996 H   0  0  0
  -35.1524    9.0563   66.1212 H   0  0  0
  -35.6820    6.9863   66.1968 C   0  0  0
  -36.3315    6.9167   65.1648 O   0  0  0
  -35.1845    5.9084   66.8880 N   0  0  0
  -34.5844    6.0901   67.6874 H   0  0  0
  -35.3925    4.5432   66.4676 C   0  0  0
  -34.7693    4.3819   65.5855 H   0  0  0
  -36.4324    4.4102   66.1596 H   0  0  0
  -35.0229    3.5787   67.5577 C   0  0  0
  -34.2463    2.4666   67.2762 C   0  0  0
  -33.9119    2.2731   66.2615 H   0  0  0
  -33.8732    1.6027   68.2849 C   0  0  0
  -33.2507    0.7455   68.0561 H   0  0  0
  -34.2669    1.8357   69.5853 C   0  0  0
  -35.0843    2.9195   69.8727 C   0  0  0
  -35.4466    3.1202   70.8741 H   0  0  0
  -35.4599    3.7771   68.8600 C   0  0  0
  -36.0988    4.6219   69.1015 H   0  0  0
  -33.7971    0.9275   70.5366 O   0  0  0
  -33.9789    1.3824   71.8814 C   0  0  0
  -33.4151    0.7185   72.5406 H   0  0  0
  -35.0335    1.3260   72.1716 H   0  0  0
  -33.5772    2.3923   72.0188 H   0  0  0
  2  1  2
  2  3  1
  2  7  1
  3  4  1
  3  5  1
  3  6  1
  7  8  1
  7 16  2
  8  9  1
  8 10  2
 10 11  1
 10 12  1
 12 13  1
 12 14  2
 14 15  1
 14 16  1
 16 17  1
 17 18  1
 18 19  1
 18 20  1
 18 21  1
 21 22  2
 21 23  1
 23 24  1
 23 25  1
 25 26  1
 25 27  1
 25 28  1
 28 29  2
 28 36  1
 29 30  1
 29 31  1
 31 32  1
 31 33  2
 33 34  1
 33 38  1
 34 35  1
 34 36  2
 36 37  1
 38 39  1
 39 40  1
 39 41  1
 39 42  1
M  ZZC   1 o1
M  ZZC   2 c2
M  ZZC   3 c1
M  ZZC   4 h15
M  ZZC   5 h16
M  ZZC   6 h17
M  ZZC   7 c3
M  ZZC   8 c4
M  ZZC   9 h14
M  ZZC  10 c5
M  ZZC  11 &Cl2
M  ZZC  12 c6
M  ZZC  13 h13
M  ZZC  14 c7
M  ZZC  15 &Cl1
M  ZZC  16 c8
M  ZZC  17 o2
M  ZZC  18 c9
M  ZZC  19 h11
M  ZZC  20 h12
M  ZZC  21 c10
M  ZZC  22 o3
M  ZZC  23 n1
M  ZZC  24 h10
M  ZZC  25 c11
M  ZZC  26 h8
M  ZZC  27 h9
M  ZZC  28 c12
M  ZZC  29 c13
M  ZZC  30 h7
M  ZZC  31 c14
M  ZZC  32 h6
M  ZZC  33 c15
M  ZZC  34 c16
M  ZZC  35 h5
M  ZZC  36 c17
M  ZZC  37 h4
M  ZZC  38 o4
M  ZZC  39 c18
M  ZZC  40 h1
M  ZZC  41 h2
M  ZZC  42 h3
M  ZZM   1 7
M  ZZI   1 80
M  ZZM   2 3
M  ZZI   2 122
M  ZZM   3 1
M  ZZI   3 111
M  ZZM   4 5
M  ZZI   4 1
M  ZZM   5 5
M  ZZI   5 1
M  ZZM   6 5
M  ZZI   6 1
M  ZZM   7 37
M  ZZI   7 124
M  ZZM   8 37
M  ZZI   8 125
M  ZZM   9 5
M  ZZI   9 1
M  ZZM  10 37
M  ZZI  10 124
M  ZZM  11 12
M  ZZI  11 92
M  ZZM  12 37
M  ZZI  12 125
M  ZZM  13 5
M  ZZI  13 1
M  ZZM  14 37
M  ZZI  14 124
M  ZZM  15 12
M  ZZI  15 92
M  ZZM  16 37
M  ZZI  16 124
M  ZZM  17 6
M  ZZI  17 59
M  ZZM  18 1
M  ZZI  18 112
M  ZZM  19 5
M  ZZI  19 1
M  ZZM  20 5
M  ZZI  20 1
M  ZZM  21 3
M  ZZI  21 121
M  ZZM  22 7
M  ZZI  22 81
M  ZZM  23 10
M  ZZI  23 211
M  ZZM  24 28
M  ZZI  24 11
M  ZZM  25 1
M  ZZI  25 112
M  ZZM  26 5
M  ZZI  26 1
M  ZZM  27 5
M  ZZI  27 1
M  ZZM  28 37
M  ZZI  28 124
M  ZZM  29 37
M  ZZI  29 125
M  ZZM  30 5
M  ZZI  30 1
M  ZZM  31 37
M  ZZI  31 125
M  ZZM  32 5
M  ZZI  32 1
M  ZZM  33 37
M  ZZI  33 124
M  ZZM  34 37
M  ZZI  34 125
M  ZZM  35 5
M  ZZI  35 1
M  ZZM  36 37
M  ZZI  36 125
M  ZZM  37 5
M  ZZI  37 1
M  ZZM  38 6
M  ZZI  38 59
M  ZZM  39 1
M  ZZI  39 111
M  ZZM  40 5
M  ZZI  40 1
M  ZZM  41 5
M  ZZI  41 1
M  ZZM  42 5
M  ZZI  42 1
M  END
> <NAME>
Z15659975

> <Score>
-25.299733

> <Natom>
42

> <Nflex>
4

> <Hbond>
-3.204274

> <Hphob>
-6.185655

> <VwInt>
-26.620644

> <Eintl>
7.04947

> <Dsolv>
9.830806

> <SolEl>
5.756074

> <mfScore>
-67.602757

> <RecConf>
1

> <molLogP>
3.69852

$$$$
Z167527480
  MOLSOFT 11211612053D

 42 43  0  0  0  0  0  0  0  0999 V2000
  -33.7652    1.5465   68.5518 F   0  0  0
  -34.4614    2.6608   68.2784 C   0  0  0
  -34.6747    3.0245   66.9691 C   0  0  0
  -34.2850    2.4080   66.1669 H   0  0  0
  -35.3934    4.1689   66.6898 C   0  0  0
  -35.5676    4.4340   65.6519 H   0  0  0
  -35.8937    4.9603   67.7185 C   0  0  0
  -35.6735    4.5687   69.0328 C   0  0  0
  -36.0678    5.1575   69.8559 H   0  0  0
  -34.9557    3.4224   69.3126 C   0  0  0
  -34.7836    3.1149   70.3383 H   0  0  0
  -36.7044    6.1997   67.4261 C   0  0  0
  -37.6961    5.9131   67.0689 H   0  0  0
  -36.8903    6.7744   68.3355 H   0  0  0
  -36.0844    7.0864   66.3645 C   0  0  0
  -36.3975    6.9359   65.1921 O   0  0  0
  -35.1421    8.0270   66.7700 N   0  0  0
  -34.5164    8.8075   65.7072 C   0  0  0
  -34.2455    9.7915   66.0929 H   0  0  0
  -35.2629    8.9996   64.9285 H   0  0  0
  -33.3303    8.0858   65.0791 C   0  0  0
  -32.6429    7.7082   65.8429 H   0  0  0
  -33.6591    7.2327   64.4748 H   0  0  0
  -32.5786    9.0694   64.2300 C   0  0  0
  -32.5923   10.2681   64.4532 O   0  0  0
  -31.8608    8.5071   63.2128 N   0  0  0
  -31.3160    9.1054   62.6044 H   0  0  0
  -31.8821    7.5171   62.9927 H   0  0  0
  -34.5437    8.0374   68.1113 C   0  0  0
  -35.2991    7.8106   68.8665 H   0  0  0
  -33.8274    7.2094   68.1365 H   0  0  0
  -33.8531    9.3136   68.5159 C   0  0  0
  -34.5387   10.5213   68.5623 C   0  0  0
  -35.5876   10.5653   68.2860 H   0  0  0
  -33.8885   11.6828   68.9267 C   0  0  0
  -34.4151   12.6306   68.9227 H   0  0  0
  -32.5658   11.6457   69.3012 C   0  0  0
  -32.0633   12.5591   69.5993 H   0  0  0
  -31.8806   10.4497   69.2852 C   0  0  0
  -30.8358   10.4221   69.5775 H   0  0  0
  -32.5163    9.2922   68.8880 C   0  0  0
  -31.9537    8.3638   68.8750 H   0  0  0
  2  1  1
  2  3  2
  2 10  1
  3  4  1
  3  5  1
  5  6  1
  5  7  2
  7  8  1
  7 12  1
  8  9  1
  8 10  2
 10 11  1
 12 13  1
 12 14  1
 12 15  1
 15 16  2
 15 17  1
 17 18  1
 17 29  1
 18 19  1
 18 20  1
 18 21  1
 21 22  1
 21 23  1
 21 24  1
 24 25  2
 24 26  1
 26 27  1
 26 28  1
 29 30  1
 29 31  1
 29 32  1
 32 33  1
 32 41  2
 33 34  1
 33 35  2
 35 36  1
 35 37  1
 37 38  1
 37 39  2
 39 40  1
 39 41  1
 41 42  1
M  ZZC   1 f1
M  ZZC   2 c16
M  ZZC   3 c15
M  ZZC   4 h3
M  ZZC   5 c14
M  ZZC   6 h4
M  ZZC   7 c13
M  ZZC   8 c18
M  ZZC   9 h1
M  ZZC  10 c17
M  ZZC  11 h2
M  ZZC  12 c12
M  ZZC  13 h5
M  ZZC  14 h6
M  ZZC  15 c11
M  ZZC  16 o2
M  ZZC  17 n1
M  ZZC  18 c8
M  ZZC  19 h11
M  ZZC  20 h12
M  ZZC  21 c9
M  ZZC  22 h10
M  ZZC  23 h9
M  ZZC  24 c10
M  ZZC  25 o1
M  ZZC  26 n2
M  ZZC  27 h7
M  ZZC  28 h8
M  ZZC  29 c7
M  ZZC  30 h13
M  ZZC  31 h14
M  ZZC  32 c4
M  ZZC  33 c3
M  ZZC  34 h17
M  ZZC  35 c2
M  ZZC  36 h18
M  ZZC  37 c1
M  ZZC  38 h19
M  ZZC  39 c6
M  ZZC  40 h15
M  ZZC  41 c5
M  ZZC  42 h16
M  ZZM   1 11
M  ZZI   1 90
M  ZZM   2 37
M  ZZI   2 124
M  ZZM   3 37
M  ZZI   3 125
M  ZZM   4 5
M  ZZI   4 1
M  ZZM   5 37
M  ZZI   5 125
M  ZZM   6 5
M  ZZI   6 1
M  ZZM   7 37
M  ZZI   7 124
M  ZZM   8 37
M  ZZI   8 125
M  ZZM   9 5
M  ZZI   9 1
M  ZZM  10 37
M  ZZI  10 125
M  ZZM  11 5
M  ZZI  11 1
M  ZZM  12 1
M  ZZI  12 112
M  ZZM  13 5
M  ZZI  13 1
M  ZZM  14 5
M  ZZI  14 1
M  ZZM  15 3
M  ZZI  15 121
M  ZZM  16 7
M  ZZI  16 81
M  ZZM  17 10
M  ZZI  17 192
M  ZZM  18 1
M  ZZI  18 112
M  ZZM  19 5
M  ZZI  19 1
M  ZZM  20 5
M  ZZI  20 1
M  ZZM  21 1
M  ZZI  21 112
M  ZZM  22 5
M  ZZI  22 1
M  ZZM  23 5
M  ZZI  23 1
M  ZZM  24 3
M  ZZI  24 121
M  ZZM  25 7
M  ZZI  25 81
M  ZZM  26 10
M  ZZI  26 212
M  ZZM  27 28
M  ZZI  27 11
M  ZZM  28 28
M  ZZI  28 11
M  ZZM  29 1
M  ZZI  29 112
M  ZZM  30 5
M  ZZI  30 1
M  ZZM  31 5
M  ZZI  31 1
M  ZZM  32 37
M  ZZI  32 124
M  ZZM  33 37
M  ZZI  33 125
M  ZZM  34 5
M  ZZI  34 1
M  ZZM  35 37
M  ZZI  35 125
M  ZZM  36 5
M  ZZI  36 1
M  ZZM  37 37
M  ZZI  37 125
M  ZZM  38 5
M  ZZI  38 1
M  ZZM  39 37
M  ZZI  39 125
M  ZZM  40 5
M  ZZI  40 1
M  ZZM  41 37
M  ZZI  41 125
M  ZZM  42 5
M  ZZI  42 1
M  END
> <NAME>
Z167527480

> <Score>
-25.233662

> <Natom>
42

> <Nflex>
8

> <Hbond>
-4.221521

> <Hphob>
-6.64385

> <VwInt>
-28.59141

> <Eintl>
8.265563

> <Dsolv>
12.217614

> <SolEl>
6.858128

> <mfScore>
-101.626544

> <RecConf>
1

> <molLogP>
2.362531

$$$$
Z123565024
  MOLSOFT 11211612053D

 42 44  0  0  1  0  0  0  0  0999 V2000
  -30.1360    8.1116   63.8370 F   0  0  0
  -31.1748    8.4133   64.6360 C   0  0  0
  -31.0122    8.3719   66.0014 C   0  0  0
  -30.0494    8.0995   66.4192 H   0  0  0
  -32.0748    8.6638   66.8312 C   0  0  0
  -31.9246    8.5990   67.9050 H   0  0  0
  -33.3069    9.0368   66.3009 C   0  0  0
  -33.4405    9.0816   64.9139 C   0  0  0
  -34.3902    9.3568   64.4632 H   0  0  0
  -32.3842    8.7594   64.0837 C   0  0  0
  -32.4976    8.7733   63.0051 H   0  0  0
  -34.4902    9.3618   67.1935 C   0  0  2
  -35.1691   10.0377   66.6621 H   0  0  0
  -34.1033    9.9755   68.5081 C   0  0  0
  -33.5886   11.2438   68.6750 N   0  0  0
  -33.3176   12.2297   67.6425 C   0  0  0
  -32.4601   11.8878   67.0574 H   0  0  0
  -33.0860   13.1809   68.1265 H   0  0  0
  -34.2091   12.3315   67.0206 H   0  0  0
  -33.3465   11.4381   70.0045 C   0  0  0
  -32.9321   12.3557   70.3987 H   0  0  0
  -33.7404   10.2706   70.6075 C   0  0  0
  -33.7118   10.0280   71.6611 H   0  0  0
  -34.2068    9.3752   69.6820 N   0  0  0
  -35.2478    8.1720   67.5291 N   0  0  0
  -35.1929    7.8788   68.5009 H   0  0  0
  -36.0454    7.4653   66.6533 C   0  0  0
  -36.1641    7.6830   65.4560 O   0  0  0
  -36.8048    6.3525   67.3332 C   0  0  0
  -37.2095    6.7317   68.2765 H   0  0  0
  -37.6681    6.0962   66.7133 H   0  0  0
  -35.9693    5.1238   67.5798 C   0  0  0
  -35.4231    4.4130   66.5214 C   0  0  0
  -35.5685    4.7556   65.5014 H   0  0  0
  -34.7067    3.2545   66.7453 C   0  0  0
  -34.2960    2.7064   65.9031 H   0  0  0
  -34.5299    2.7925   68.0351 C   0  0  0
  -33.6562    1.3230   68.2941 Cl  0  0  0
  -35.0575    3.5030   69.0993 C   0  0  0
  -34.8500    2.9573   70.7274 Cl  0  0  0
  -35.7727    4.6631   68.8731 C   0  0  0
  -36.1941    5.2049   69.7153 H   0  0  0
  2  1  1
  2  3  2
  2 10  1
  3  4  1
  3  5  1
  5  6  1
  5  7  2
  7  8  1
 12  7  1
  8  9  1
  8 10  2
 10 11  1
 12 13  1
 12 14  1
 12 25  1
 14 15  1
 14 24  2
 15 16  1
 15 20  1
 16 17  1
 16 18  1
 16 19  1
 20 21  1
 20 22  2
 22 23  1
 22 24  1
 25 26  1
 25 27  1
 27 28  2
 27 29  1
 29 30  1
 29 31  1
 29 32  1
 32 33  2
 32 41  1
 33 34  1
 33 35  1
 35 36  1
 35 37  2
 37 38  1
 37 39  1
 39 40  1
 39 41  2
 41 42  1
M  ZZC   1 f1
M  ZZC   2 c9
M  ZZC   3 c10
M  ZZC   4 h8
M  ZZC   5 c11
M  ZZC   6 h7
M  ZZC   7 c6
M  ZZC   8 c7
M  ZZC   9 h10
M  ZZC  10 c8
M  ZZC  11 h9
M  ZZC  12 c5
M  ZZC  13 h16
M  ZZC  14 c4
M  ZZC  15 n1
M  ZZC  16 c1
M  ZZC  17 h13
M  ZZC  18 h14
M  ZZC  19 h15
M  ZZC  20 c2
M  ZZC  21 h12
M  ZZC  22 c3
M  ZZC  23 h11
M  ZZC  24 n2
M  ZZC  25 n3
M  ZZC  26 h6
M  ZZC  27 c12
M  ZZC  28 o1
M  ZZC  29 c13
M  ZZC  30 h4
M  ZZC  31 h5
M  ZZC  32 c14
M  ZZC  33 c15
M  ZZC  34 h3
M  ZZC  35 c16
M  ZZC  36 h2
M  ZZC  37 c17
M  ZZC  38 &Cl2
M  ZZC  39 c18
M  ZZC  40 &Cl1
M  ZZC  41 c19
M  ZZC  42 h1
M  ZZM   1 11
M  ZZI   1 90
M  ZZM   2 37
M  ZZI   2 124
M  ZZM   3 37
M  ZZI   3 125
M  ZZM   4 5
M  ZZI   4 1
M  ZZM   5 37
M  ZZI   5 125
M  ZZM   6 5
M  ZZI   6 1
M  ZZM   7 37
M  ZZI   7 124
M  ZZM   8 37
M  ZZI   8 125
M  ZZM   9 5
M  ZZI   9 1
M  ZZM  10 37
M  ZZI  10 125
M  ZZM  11 5
M  ZZI  11 1
M  ZZM  12 1
M  ZZI  12 113
M  ZZM  13 5
M  ZZI  13 1
M  ZZM  14 63
M  ZZI  14 104
M  ZZM  15 39
M  ZZI  15 215
M  ZZM  16 1
M  ZZI  16 111
M  ZZM  17 5
M  ZZI  17 1
M  ZZM  18 5
M  ZZI  18 1
M  ZZM  19 5
M  ZZI  19 1
M  ZZM  20 63
M  ZZI  20 104
M  ZZM  21 5
M  ZZI  21 1
M  ZZM  22 64
M  ZZI  22 105
M  ZZM  23 5
M  ZZI  23 1
M  ZZM  24 66
M  ZZI  24 222
M  ZZM  25 10
M  ZZI  25 211
M  ZZM  26 28
M  ZZI  26 11
M  ZZM  27 3
M  ZZI  27 121
M  ZZM  28 7
M  ZZI  28 81
M  ZZM  29 1
M  ZZI  29 112
M  ZZM  30 5
M  ZZI  30 1
M  ZZM  31 5
M  ZZI  31 1
M  ZZM  32 37
M  ZZI  32 124
M  ZZM  33 37
M  ZZI  33 125
M  ZZM  34 5
M  ZZI  34 1
M  ZZM  35 37
M  ZZI  35 125
M  ZZM  36 5
M  ZZI  36 1
M  ZZM  37 37
M  ZZI  37 124
M  ZZM  38 12
M  ZZI  38 92
M  ZZM  39 37
M  ZZI  39 124
M  ZZM  40 12
M  ZZI  40 92
M  ZZM  41 37
M  ZZI  41 125
M  ZZM  42 5
M  ZZI  42 1
M  END
> <NAME>
Z123565024

> <Score>
-25.214567

> <Natom>
42

> <Nflex>
5

> <Hbond>
-1.371684

> <Hphob>
-7.921239

> <VwInt>
-31.724553

> <Eintl>
5.620336

> <Dsolv>
9.006845

> <SolEl>
8.38249

> <mfScore>
-102.63437

> <RecConf>
1

> <molLogP>
3.909752

$$$$
Z354993090
  MOLSOFT 11211612053D

 42 43  0  0  1  0  0  0  0  0999 V2000
  -34.0112    1.3553   71.5671 F   0  0  0
  -34.3227    2.1599   70.5393 C   0  0  0
  -34.7811    3.4343   70.7930 C   0  0  0
  -34.8906    3.7735   71.8176 H   0  0  0
  -35.0926    4.2718   69.7390 C   0  0  0
  -35.4505    5.2700   69.9621 H   0  0  0
  -34.9446    3.8083   68.4355 C   0  0  0
  -34.4937    2.5256   68.1960 C   0  0  0
  -34.3866    2.1721   67.1749 H   0  0  0
  -34.1730    1.6984   69.2508 C   0  0  0
  -33.8061    0.6965   69.0698 H   0  0  0
  -35.2295    4.5504   67.2907 O   0  0  0
  -35.4908    5.9412   67.5255 C   0  0  0
  -36.3739    6.0492   68.1662 H   0  0  0
  -34.6142    6.4037   67.9932 H   0  0  0
  -35.7706    6.5694   66.1635 C   0  0  1
  -35.0386    6.1856   65.4513 H   0  0  0
  -37.0345    6.1208   65.6773 O   0  0  0
  -37.7402    6.4837   66.2458 H   0  0  0
  -35.7812    8.1016   66.1906 C   0  0  0
  -36.3350    8.5049   65.3352 H   0  0  0
  -36.3682    8.4086   67.0623 H   0  0  0
  -34.4200    8.6732   66.2635 N   0  0  0
  -34.4527    9.9018   67.0828 C   0  0  0
  -35.1838   10.5943   66.6570 H   0  0  0
  -34.7803    9.6657   68.1016 H   0  0  0
  -33.0904   10.5956   67.1469 C   0  0  2
  -32.3516    9.9536   67.6414 H   0  0  0
  -33.1924   11.9087   67.9093 C   0  0  0
  -32.2293   12.4247   67.9124 H   0  0  0
  -33.5082   11.7526   68.9448 H   0  0  0
  -33.9011   12.5879   67.4273 H   0  0  0
  -32.6300   10.8893   65.8210 O   0  0  0
  -32.5199    9.6747   65.0677 C   0  0  0
  -32.1300    9.9309   64.0793 H   0  0  0
  -31.7878    9.0113   65.5443 H   0  0  0
  -33.8853    9.0097   64.9145 C   0  0  2
  -34.5574    9.7342   64.4374 H   0  0  0
  -33.7333    7.8116   63.9755 C   0  0  0
  -34.7031    7.4107   63.6695 H   0  0  0
  -33.1482    7.0096   64.4357 H   0  0  0
  -33.2159    8.1007   63.0559 H   0  0  0
  2  1  1
  2  3  2
  2 10  1
  3  4  1
  3  5  1
  5  6  1
  5  7  2
  7  8  1
  7 12  1
  8  9  1
  8 10  2
 10 11  1
 12 13  1
 13 14  1
 13 15  1
 16 13  1
 16 17  1
 16 18  1
 16 20  1
 18 19  1
 20 21  1
 20 22  1
 20 23  1
 23 24  1
 37 23  1
 24 25  1
 24 26  1
 27 24  1
 27 28  1
 27 29  1
 27 33  1
 29 30  1
 29 31  1
 29 32  1
 33 34  1
 34 35  1
 34 36  1
 37 34  1
 37 38  1
 37 39  1
 39 40  1
 39 41  1
 39 42  1
M  ZZC   1 f1
M  ZZC   2 c13
M  ZZC   3 c12
M  ZZC   4 h4
M  ZZC   5 c11
M  ZZC   6 h5
M  ZZC   7 c10
M  ZZC   8 c15
M  ZZC   9 h2
M  ZZC  10 c14
M  ZZC  11 h3
M  ZZC  12 o2
M  ZZC  13 c9
M  ZZC  14 h6
M  ZZC  15 h7
M  ZZC  16 c8
M  ZZC  17 h20
M  ZZC  18 o3
M  ZZC  19 h1
M  ZZC  20 c7
M  ZZC  21 h8
M  ZZC  22 h9
M  ZZC  23 n1
M  ZZC  24 c3
M  ZZC  25 h15
M  ZZC  26 h16
M  ZZC  27 c2
M  ZZC  28 h22
M  ZZC  29 c1
M  ZZC  30 h17
M  ZZC  31 h18
M  ZZC  32 h19
M  ZZC  33 o1
M  ZZC  34 c5
M  ZZC  35 h13
M  ZZC  36 h14
M  ZZC  37 c4
M  ZZC  38 h21
M  ZZC  39 c6
M  ZZC  40 h10
M  ZZC  41 h11
M  ZZC  42 h12
M  ZZM   1 11
M  ZZI   1 90
M  ZZM   2 37
M  ZZI   2 124
M  ZZM   3 37
M  ZZI   3 125
M  ZZM   4 5
M  ZZI   4 1
M  ZZM   5 37
M  ZZI   5 125
M  ZZM   6 5
M  ZZI   6 1
M  ZZM   7 37
M  ZZI   7 124
M  ZZM   8 37
M  ZZI   8 125
M  ZZM   9 5
M  ZZI   9 1
M  ZZM  10 37
M  ZZI  10 125
M  ZZM  11 5
M  ZZI  11 1
M  ZZM  12 6
M  ZZI  12 59
M  ZZM  13 1
M  ZZI  13 112
M  ZZM  14 5
M  ZZI  14 1
M  ZZM  15 5
M  ZZI  15 1
M  ZZM  16 1
M  ZZI  16 113
M  ZZM  17 5
M  ZZI  17 1
M  ZZM  18 6
M  ZZI  18 60
M  ZZM  19 21
M  ZZI  19 20
M  ZZM  20 1
M  ZZI  20 112
M  ZZM  21 5
M  ZZI  21 1
M  ZZM  22 5
M  ZZI  22 1
M  ZZM  23 8
M  ZZI  23 216
M  ZZM  24 1
M  ZZI  24 112
M  ZZM  25 5
M  ZZI  25 1
M  ZZM  26 5
M  ZZI  26 1
M  ZZM  27 1
M  ZZI  27 113
M  ZZM  28 5
M  ZZI  28 1
M  ZZM  29 1
M  ZZI  29 111
M  ZZM  30 5
M  ZZI  30 1
M  ZZM  31 5
M  ZZI  31 1
M  ZZM  32 5
M  ZZI  32 1
M  ZZM  33 6
M  ZZI  33 65
M  ZZM  34 1
M  ZZI  34 112
M  ZZM  35 5
M  ZZI  35 1
M  ZZM  36 5
M  ZZI  36 1
M  ZZM  37 1
M  ZZI  37 113
M  ZZM  38 5
M  ZZI  38 1
M  ZZM  39 1
M  ZZI  39 111
M  ZZM  40 5
M  ZZI  40 1
M  ZZM  41 5
M  ZZI  41 1
M  ZZM  42 5
M  ZZI  42 1
M  END
> <NAME>
Z354993090

> <Score>
-25.119559

> <Natom>
42

> <Nflex>
6

> <Hbond>
-4.038405

> <Hphob>
-6.721128

> <VwInt>
-23.251239

> <Eintl>
3.894973

> <Dsolv>
10.166419

> <SolEl>
2.465432

> <mfScore>
-94.70019

> <RecConf>
1

> <molLogP>
1.812587

$$$$
Z978980852
  MOLSOFT 11211612053D

 42 44  0  0  0  0  0  0  0  0999 V2000
  -33.6443    1.1314   67.9992 F   0  0  0
  -34.3963    1.7657   68.9339 C   0  0  0
  -33.6596    1.7636   70.0788 F   0  0  0
  -35.3365    1.2189   69.0648 H   0  0  0
  -34.5783    3.1142   68.4925 O   0  0  0
  -35.4858    3.8329   69.2772 C   0  0  0
  -35.9972    5.0041   68.7264 C   0  0  0
  -36.9504    5.7139   69.4394 C   0  0  0
  -37.4258    6.5781   68.9932 H   0  0  0
  -37.3492    5.3121   70.6966 C   0  0  0
  -38.1004    5.8805   71.2372 H   0  0  0
  -36.8046    4.1795   71.2576 C   0  0  0
  -37.1191    3.8604   72.2467 H   0  0  0
  -35.8780    3.4369   70.5545 C   0  0  0
  -35.4840    2.5493   71.0355 H   0  0  0
  -35.6321    5.4390   67.3717 C   0  0  0
  -35.6289    4.6737   66.6000 H   0  0  0
  -35.3414    6.7189   67.0809 C   0  0  0
  -35.3251    7.5152   67.8147 H   0  0  0
  -35.1224    7.0587   65.6535 C   0  0  0
  -35.9410    6.6797   64.8300 O   0  0  0
  -33.9817    7.7967   65.3554 N   0  0  0
  -33.7008    8.0850   63.9545 C   0  0  0
  -32.8545    7.4721   63.6303 H   0  0  0
  -33.4514    9.1412   63.8314 H   0  0  0
  -34.5630    7.8557   63.3227 H   0  0  0
  -32.9684    8.1897   66.3369 C   0  0  0
  -31.9821    8.0056   65.8992 H   0  0  0
  -33.0442    7.5439   67.2126 H   0  0  0
  -33.0947    9.6339   66.7043 C   0  0  0
  -33.0399   10.6600   65.8774 N   0  0  0
  -33.1397   11.8110   66.6126 N   0  0  0
  -33.2387   11.4677   67.8752 C   0  0  0
  -33.3362   12.2278   69.0583 C   0  0  0
  -33.3418   13.3084   68.9955 H   0  0  0
  -33.4022   11.6021   70.2406 C   0  0  0
  -33.4667   12.1703   71.1630 H   0  0  0
  -33.3960   10.1673   70.3251 C   0  0  0
  -33.4652    9.6940   71.2991 H   0  0  0
  -33.2990    9.4538   69.2010 C   0  0  0
  -33.2793    8.3705   69.2157 H   0  0  0
  -33.2176   10.1078   67.9903 N   0  0  0
  2  1  1
  2  3  1
  2  4  1
  2  5  1
  5  6  1
  6  7  1
  6 14  2
  7  8  2
  7 16  1
  8  9  1
  8 10  1
 10 11  1
 10 12  2
 12 13  1
 12 14  1
 14 15  1
 16 17  1
 16 18  2
 18 19  1
 18 20  1
 20 21  2
 20 22  1
 22 23  1
 22 27  1
 23 24  1
 23 25  1
 23 26  1
 27 28  1
 27 29  1
 27 30  1
 30 31  2
 30 42  1
 31 32  1
 32 33  2
 33 34  1
 33 42  1
 34 35  1
 34 36  2
 36 37  1
 36 38  1
 38 39  1
 38 40  2
 40 41  1
 40 42  1
M  ZZC   1 f1
M  ZZC   2 c18
M  ZZC   3 f2
M  ZZC   4 h1
M  ZZC   5 o2
M  ZZC   6 c17
M  ZZC   7 c12
M  ZZC   8 c13
M  ZZC   9 h5
M  ZZC  10 c14
M  ZZC  11 h4
M  ZZC  12 c15
M  ZZC  13 h3
M  ZZC  14 c16
M  ZZC  15 h2
M  ZZC  16 c11
M  ZZC  17 h6
M  ZZC  18 c10
M  ZZC  19 h7
M  ZZC  20 c9
M  ZZC  21 o1
M  ZZC  22 n1
M  ZZC  23 c1
M  ZZC  24 h14
M  ZZC  25 h15
M  ZZC  26 h16
M  ZZC  27 c2
M  ZZC  28 h12
M  ZZC  29 h13
M  ZZC  30 c3
M  ZZC  31 n2
M  ZZC  32 n3
M  ZZC  33 c4
M  ZZC  34 c8
M  ZZC  35 h8
M  ZZC  36 c7
M  ZZC  37 h9
M  ZZC  38 c6
M  ZZC  39 h10
M  ZZC  40 c5
M  ZZC  41 h11
M  ZZC  42 n4
M  ZZM   1 11
M  ZZI   1 90
M  ZZM   2 1
M  ZZI   2 113
M  ZZM   3 11
M  ZZI   3 90
M  ZZM   4 5
M  ZZI   4 1
M  ZZM   5 6
M  ZZI   5 59
M  ZZM   6 37
M  ZZI   6 124
M  ZZM   7 37
M  ZZI   7 124
M  ZZM   8 37
M  ZZI   8 125
M  ZZM   9 5
M  ZZI   9 1
M  ZZM  10 37
M  ZZI  10 125
M  ZZM  11 5
M  ZZI  11 1
M  ZZM  12 37
M  ZZI  12 125
M  ZZM  13 5
M  ZZI  13 1
M  ZZM  14 37
M  ZZI  14 125
M  ZZM  15 5
M  ZZI  15 1
M  ZZM  16 2
M  ZZI  16 120
M  ZZM  17 5
M  ZZI  17 1
M  ZZM  18 2
M  ZZI  18 120
M  ZZM  19 5
M  ZZI  19 1
M  ZZM  20 3
M  ZZI  20 121
M  ZZM  21 7
M  ZZI  21 81
M  ZZM  22 10
M  ZZI  22 192
M  ZZM  23 1
M  ZZI  23 111
M  ZZM  24 5
M  ZZI  24 1
M  ZZM  25 5
M  ZZI  25 1
M  ZZM  26 5
M  ZZI  26 1
M  ZZM  27 1
M  ZZI  27 112
M  ZZM  28 5
M  ZZI  28 1
M  ZZM  29 5
M  ZZI  29 1
M  ZZM  30 63
M  ZZI  30 104
M  ZZM  31 66
M  ZZI  31 222
M  ZZM  32 66
M  ZZI  32 222
M  ZZM  33 63
M  ZZI  33 104
M  ZZM  34 2
M  ZZI  34 120
M  ZZM  35 5
M  ZZI  35 1
M  ZZM  36 2
M  ZZI  36 120
M  ZZM  37 5
M  ZZI  37 1
M  ZZM  38 2
M  ZZI  38 120
M  ZZM  39 5
M  ZZI  39 1
M  ZZM  40 2
M  ZZI  40 120
M  ZZM  41 5
M  ZZI  41 1
M  ZZM  42 39
M  ZZI  42 215
M  END
> <NAME>
Z978980852

> <Score>
-25.094935

> <Natom>
42

> <Nflex>
4

> <Hbond>
-2.858439

> <Hphob>
-6.45866

> <VwInt>
-29.081807

> <Eintl>
5.616465

> <Dsolv>
11.913733

> <SolEl>
6.379887

> <mfScore>
-73.050273

> <RecConf>
1

> <molLogP>
2.574201

$$$$
Z17963473
  MOLSOFT 11211612053D

 43 44  0  0  1  0  0  0  0  0999 V2000
  -36.2867    6.9992   65.2356 O   0  0  0
  -35.5253    7.3800   66.1178 C   0  0  0
  -34.4748    8.4621   65.9350 C   0  0  1
  -33.5969    8.1925   66.5324 H   0  0  0
  -34.0897    8.4102   64.5277 N   0  0  0
  -34.8007    8.4380   63.8071 H   0  0  0
  -32.8040    8.1821   64.1470 C   0  0  0
  -31.8455    8.1406   64.8970 O   0  0  0
  -32.6980    7.9665   62.8193 N   0  0  0
  -31.7996    7.6962   62.4409 H   0  0  0
  -33.4842    8.0149   62.1851 H   0  0  0
  -35.0410    9.8291   66.3366 C   0  0  0
  -34.8367   10.5518   65.5409 H   0  0  0
  -36.1313    9.7859   66.4368 H   0  0  0
  -34.4560   10.3551   67.6281 C   0  0  0
  -34.6874    9.7233   68.8431 C   0  0  0
  -35.3151    8.8420   68.8962 H   0  0  0
  -34.1241   10.1973   70.0110 C   0  0  0
  -34.3070    9.6809   70.9481 H   0  0  0
  -33.3363   11.3278   69.9920 C   0  0  0
  -32.8953   11.7054   70.9091 H   0  0  0
  -33.1190   11.9811   68.8000 C   0  0  0
  -32.5024   12.8734   68.7804 H   0  0  0
  -33.6729   11.5009   67.6313 C   0  0  0
  -33.4852   12.0414   66.7122 H   0  0  0
  -35.5042    6.9166   67.4021 O   0  0  0
  -36.4237    5.8589   67.6735 C   0  0  0
  -36.9186    6.0835   68.6235 H   0  0  0
  -37.2108    5.8020   66.9160 H   0  0  0
  -35.6661    4.5625   67.7662 C   0  0  0
  -35.1314    3.9770   66.6296 C   0  0  0
  -35.2727    4.4347   65.6563 H   0  0  0
  -34.4092    2.8088   66.7191 C   0  0  0
  -33.9886    2.3693   65.8232 H   0  0  0
  -34.2165    2.2003   67.9400 C   0  0  0
  -33.6469    1.2777   67.9927 H   0  0  0
  -34.7458    2.7624   69.0882 C   0  0  0
  -34.5470    2.0866   70.4114 C   0  0  0
  -35.0057    1.0928   70.4011 H   0  0  0
  -35.0054    2.6610   71.2218 H   0  0  0
  -33.4799    1.9878   70.6327 H   0  0  0
  -35.4619    3.9461   68.9928 C   0  0  0
  -35.8699    4.3965   69.8929 H   0  0  0
  2  1  2
  3  2  1
  2 26  1
  3  4  1
  3  5  1
  3 12  1
  5  6  1
  5  7  1
  7  8  2
  7  9  1
  9 10  1
  9 11  1
 12 13  1
 12 14  1
 12 15  1
 15 16  2
 15 24  1
 16 17  1
 16 18  1
 18 19  1
 18 20  2
 20 21  1
 20 22  1
 22 23  1
 22 24  2
 24 25  1
 26 27  1
 27 28  1
 27 29  1
 27 30  1
 30 31  1
 30 42  2
 31 32  1
 31 33  2
 33 34  1
 33 35  1
 35 36  1
 35 37  2
 37 38  1
 37 42  1
 38 39  1
 38 40  1
 38 41  1
 42 43  1
M  ZZC   1 o2
M  ZZC   2 c9
M  ZZC   3 c10
M  ZZC   4 h20
M  ZZC   5 n1
M  ZZC   6 h3
M  ZZC   7 c18
M  ZZC   8 o3
M  ZZC   9 n2
M  ZZC  10 h1
M  ZZC  11 h2
M  ZZC  12 c11
M  ZZC  13 h10
M  ZZC  14 h9
M  ZZC  15 c12
M  ZZC  16 c13
M  ZZC  17 h8
M  ZZC  18 c14
M  ZZC  19 h7
M  ZZC  20 c15
M  ZZC  21 h6
M  ZZC  22 c16
M  ZZC  23 h5
M  ZZC  24 c17
M  ZZC  25 h4
M  ZZC  26 o1
M  ZZC  27 c8
M  ZZC  28 h11
M  ZZC  29 h12
M  ZZC  30 c6
M  ZZC  31 c5
M  ZZC  32 h14
M  ZZC  33 c4
M  ZZC  34 h15
M  ZZC  35 c3
M  ZZC  36 h16
M  ZZC  37 c2
M  ZZC  38 c1
M  ZZC  39 h17
M  ZZC  40 h18
M  ZZC  41 h19
M  ZZC  42 c7
M  ZZC  43 h13
M  ZZM   1 7
M  ZZI   1 82
M  ZZM   2 3
M  ZZI   2 123
M  ZZM   3 1
M  ZZI   3 113
M  ZZM   4 5
M  ZZI   4 1
M  ZZM   5 10
M  ZZI   5 211
M  ZZM   6 28
M  ZZI   6 11
M  ZZM   7 3
M  ZZI   7 121
M  ZZM   8 7
M  ZZI   8 81
M  ZZM   9 10
M  ZZI   9 212
M  ZZM  10 28
M  ZZI  10 11
M  ZZM  11 28
M  ZZI  11 11
M  ZZM  12 1
M  ZZI  12 112
M  ZZM  13 5
M  ZZI  13 1
M  ZZM  14 5
M  ZZI  14 1
M  ZZM  15 37
M  ZZI  15 124
M  ZZM  16 37
M  ZZI  16 125
M  ZZM  17 5
M  ZZI  17 1
M  ZZM  18 37
M  ZZI  18 125
M  ZZM  19 5
M  ZZI  19 1
M  ZZM  20 37
M  ZZI  20 125
M  ZZM  21 5
M  ZZI  21 1
M  ZZM  22 37
M  ZZI  22 125
M  ZZM  23 5
M  ZZI  23 1
M  ZZM  24 37
M  ZZI  24 125
M  ZZM  25 5
M  ZZI  25 1
M  ZZM  26 6
M  ZZI  26 61
M  ZZM  27 1
M  ZZI  27 112
M  ZZM  28 5
M  ZZI  28 1
M  ZZM  29 5
M  ZZI  29 1
M  ZZM  30 37
M  ZZI  30 124
M  ZZM  31 37
M  ZZI  31 125
M  ZZM  32 5
M  ZZI  32 1
M  ZZM  33 37
M  ZZI  33 125
M  ZZM  34 5
M  ZZI  34 1
M  ZZM  35 37
M  ZZI  35 125
M  ZZM  36 5
M  ZZI  36 1
M  ZZM  37 37
M  ZZI  37 124
M  ZZM  38 1
M  ZZI  38 111
M  ZZM  39 5
M  ZZI  39 1
M  ZZM  40 5
M  ZZI  40 1
M  ZZM  41 5
M  ZZI  41 1
M  ZZM  42 37
M  ZZI  42 125
M  ZZM  43 5
M  ZZI  43 1
M  END
> <NAME>
Z17963473

> <Score>
-32.765318

> <Natom>
43

> <Nflex>
7

> <Hbond>
-5.288761

> <Hphob>
-5.51774

> <VwInt>
-31.649428

> <Eintl>
9.963154

> <Dsolv>
12.653718

> <SolEl>
3.441322

> <mfScore>
-70.968356

> <RecConf>
1

> <molLogP>
2.85971

$$$$
Z606141014
  MOLSOFT 11211612053D

 43 45  0  0  0  0  0  0  0  0999 V2000
  -34.1803    6.1570   64.7512 O   0  0  0
  -35.1250    6.7948   65.6451 S   0  0  0
  -36.4325    7.2027   65.1782 O   0  0  0
  -34.3232    8.1111   66.4112 N   0  0  0
  -32.8889    8.3692   66.0357 C   0  0  0
  -32.3460    7.4249   65.9491 H   0  0  0
  -32.3745    8.9313   66.8201 H   0  0  0
  -32.7931    9.1475   64.7315 C   0  0  0
  -32.9234   10.3612   64.6887 O   0  0  0
  -32.5698    8.3797   63.6143 N   0  0  0
  -32.5090    8.8142   62.7015 H   0  0  0
  -32.5281    7.3639   63.6347 H   0  0  0
  -35.1302    9.2895   66.8607 C   0  0  0
  -35.2822    9.9590   66.0083 H   0  0  0
  -36.1283    8.9688   67.1707 H   0  0  0
  -34.5069   10.0388   68.0101 C   0  0  0
  -34.4231    9.4566   69.2684 C   0  0  0
  -34.8301    8.4653   69.4421 H   0  0  0
  -33.8069   10.1184   70.3112 C   0  0  0
  -33.7439    9.6446   71.2860 H   0  0  0
  -33.2677   11.3715   70.1025 C   0  0  0
  -32.3915   12.2673   71.5266 Br  0  0  0
  -33.3565   11.9735   68.8647 C   0  0  0
  -32.9318   12.9580   68.6971 H   0  0  0
  -33.9745   11.3094   67.8250 C   0  0  0
  -34.0199   11.7910   66.8534 H   0  0  0
  -35.3933    5.6637   67.0279 C   0  0  0
  -34.7762    4.4232   67.0288 C   0  0  0
  -34.1897    4.0901   66.1780 H   0  0  0
  -34.8847    3.6143   68.1476 C   0  0  0
  -34.2203    2.3993   68.1979 C   0  0  0
  -33.6251    2.0550   67.3576 H   0  0  0
  -34.2951    1.6163   69.3294 C   0  0  0
  -33.7570    0.6779   69.3683 H   0  0  0
  -35.0474    2.0254   70.4091 C   0  0  0
  -35.1120    1.3998   71.2938 H   0  0  0
  -35.7250    3.2264   70.3626 C   0  0  0
  -36.3182    3.5306   71.2203 H   0  0  0
  -35.6464    4.0291   69.2338 C   0  0  0
  -36.3277    5.2366   69.1814 C   0  0  0
  -36.9514    5.5568   70.0113 H   0  0  0
  -36.2070    6.0544   68.0773 C   0  0  0
  -36.7433    6.9951   68.0535 H   0  0  0
  2  1  2
  2  3  2
  2  4  1
  2 27  1
  4  5  1
  4 13  1
  5  6  1
  5  7  1
  5  8  1
  8  9  2
  8 10  1
 10 11  1
 10 12  1
 13 14  1
 13 15  1
 13 16  1
 16 17  2
 16 25  1
 17 18  1
 17 19  1
 19 20  1
 19 21  2
 21 22  1
 21 23  1
 23 24  1
 23 25  2
 25 26  1
 27 28  2
 27 42  1
 28 29  1
 28 30  1
 30 31  1
 30 39  2
 31 32  1
 31 33  2
 33 34  1
 33 35  1
 35 36  1
 35 37  2
 37 38  1
 37 39  1
 39 40  1
 40 41  1
 40 42  2
 42 43  1
M  ZZC   1 o1
M  ZZC   2 s1
M  ZZC   3 o2
M  ZZC   4 n1
M  ZZC   5 c18
M  ZZC   6 h3
M  ZZC   7 h4
M  ZZC   8 c19
M  ZZC   9 o3
M  ZZC  10 n2
M  ZZC  11 h1
M  ZZC  12 h2
M  ZZC  13 c11
M  ZZC  14 h10
M  ZZC  15 h9
M  ZZC  16 c12
M  ZZC  17 c13
M  ZZC  18 h8
M  ZZC  19 c14
M  ZZC  20 h7
M  ZZC  21 c15
M  ZZC  22 &Br1
M  ZZC  23 c16
M  ZZC  24 h6
M  ZZC  25 c17
M  ZZC  26 h5
M  ZZC  27 c6
M  ZZC  28 c5
M  ZZC  29 h14
M  ZZC  30 c4
M  ZZC  31 c3
M  ZZC  32 h15
M  ZZC  33 c2
M  ZZC  34 h16
M  ZZC  35 c1
M  ZZC  36 h17
M  ZZC  37 c10
M  ZZC  38 h11
M  ZZC  39 c9
M  ZZC  40 c8
M  ZZC  41 h12
M  ZZC  42 c7
M  ZZC  43 h13
M  ZZM   1 32
M  ZZI   1 73
M  ZZM   2 18
M  ZZI   2 250
M  ZZM   3 32
M  ZZI   3 73
M  ZZM   4 43
M  ZZI   4 195
M  ZZM   5 1
M  ZZI   5 112
M  ZZM   6 5
M  ZZI   6 1
M  ZZM   7 5
M  ZZI   7 1
M  ZZM   8 3
M  ZZI   8 121
M  ZZM   9 7
M  ZZI   9 81
M  ZZM  10 10
M  ZZI  10 212
M  ZZM  11 28
M  ZZI  11 11
M  ZZM  12 28
M  ZZI  12 11
M  ZZM  13 1
M  ZZI  13 112
M  ZZM  14 5
M  ZZI  14 1
M  ZZM  15 5
M  ZZI  15 1
M  ZZM  16 37
M  ZZI  16 124
M  ZZM  17 37
M  ZZI  17 125
M  ZZM  18 5
M  ZZI  18 1
M  ZZM  19 37
M  ZZI  19 125
M  ZZM  20 5
M  ZZI  20 1
M  ZZM  21 37
M  ZZI  21 124
M  ZZM  22 13
M  ZZI  22 95
M  ZZM  23 37
M  ZZI  23 125
M  ZZM  24 5
M  ZZI  24 1
M  ZZM  25 37
M  ZZI  25 125
M  ZZM  26 5
M  ZZI  26 1
M  ZZM  27 37
M  ZZI  27 124
M  ZZM  28 37
M  ZZI  28 125
M  ZZM  29 5
M  ZZI  29 1
M  ZZM  30 37
M  ZZI  30 124
M  ZZM  31 37
M  ZZI  31 125
M  ZZM  32 5
M  ZZI  32 1
M  ZZM  33 37
M  ZZI  33 125
M  ZZM  34 5
M  ZZI  34 1
M  ZZM  35 37
M  ZZI  35 125
M  ZZM  36 5
M  ZZI  36 1
M  ZZM  37 37
M  ZZI  37 125
M  ZZM  38 5
M  ZZI  38 1
M  ZZM  39 37
M  ZZI  39 124
M  ZZM  40 37
M  ZZI  40 125
M  ZZM  41 5
M  ZZI  41 1
M  ZZM  42 37
M  ZZI  42 125
M  ZZM  43 5
M  ZZI  43 1
M  END
> <NAME>
Z606141014

> <Score>
-31.320119

> <Natom>
43

> <Nflex>
6

> <Hbond>
-3.382893

> <Hphob>
-6.532874

> <VwInt>
-31.965671

> <Eintl>
9.571937

> <Dsolv>
9.353711

> <SolEl>
4.493963

> <mfScore>
-92.495663

> <RecConf>
1

> <molLogP>
3.827237

$$$$
Z53058673
  MOLSOFT 11211612053D

 43 46  0  0  1  0  0  0  0  0999 V2000
  -36.2907    5.6510   65.1755 O   0  0  0
  -35.5892    5.8106   66.1692 C   0  0  0
  -34.9976    7.1838   66.4859 C   0  0  1
  -34.5513    7.1319   67.4814 H   0  0  0
  -33.8863    7.5558   65.5186 C   0  0  0
  -34.0339    7.5006   64.1362 C   0  0  0
  -34.9701    7.1893   63.6877 H   0  0  0
  -32.9947    7.8510   63.2999 C   0  0  0
  -33.1196    7.7842   62.2249 H   0  0  0
  -31.7945    8.2832   63.8178 C   0  0  0
  -30.9813    8.5582   63.1536 H   0  0  0
  -31.6317    8.3522   65.1827 C   0  0  0
  -30.6879    8.6886   65.5997 H   0  0  0
  -32.6617    7.9834   66.0215 C   0  0  0
  -32.4995    8.0470   67.0934 H   0  0  0
  -36.1397    8.1257   66.5566 N   0  0  0
  -36.8635    7.8557   65.8874 H   0  0  0
  -35.8177    9.5333   66.3231 C   0  0  0
  -36.7768   10.0503   66.3457 H   0  0  0
  -35.4286    9.6897   65.3129 H   0  0  0
  -34.9218   10.1544   67.3404 C   0  0  0
  -34.7660   10.0132   68.7047 C   0  0  0
  -35.3200    9.3402   69.3428 H   0  0  0
  -33.7467   10.9177   69.0899 C   0  0  0
  -33.3539   11.0876   70.0821 H   0  0  0
  -33.3429   11.5561   67.9409 C   0  0  0
  -32.6060   12.3177   67.7253 H   0  0  0
  -34.0474   11.0955   66.8707 O   0  0  0
  -35.3256    4.6958   67.0582 C   0  0  0
  -35.0790    3.4149   66.6108 C   0  0  0
  -35.0125    3.0073   65.6120 H   0  0  0
  -34.9149    2.6067   67.6957 N   0  0  0
  -34.7582    1.6074   67.6535 H   0  0  0
  -35.0621    3.3263   68.8496 C   0  0  0
  -35.3295    4.6391   68.4893 C   0  0  0
  -35.5812    5.5584   69.5036 C   0  0  0
  -35.8361    6.5897   69.2861 H   0  0  0
  -35.5249    5.1405   70.8169 C   0  0  0
  -35.7215    5.8552   71.6103 H   0  0  0
  -35.2337    3.8337   71.1411 C   0  0  0
  -35.2017    3.5350   72.1841 H   0  0  0
  -34.9991    2.8945   70.1602 C   0  0  0
  -34.7899    1.8600   70.4153 H   0  0  0
  2  1  2
  3  2  1
  2 29  1
  3  4  1
  3  5  1
  3 16  1
  5  6  2
  5 14  1
  6  7  1
  6  8  1
  8  9  1
  8 10  2
 10 11  1
 10 12  1
 12 13  1
 12 14  2
 14 15  1
 16 17  1
 16 18  1
 18 19  1
 18 20  1
 18 21  1
 21 22  2
 21 28  1
 22 23  1
 22 24  1
 24 25  1
 24 26  2
 26 27  1
 26 28  1
 29 30  2
 29 35  1
 30 31  1
 30 32  1
 32 33  1
 32 34  1
 34 35  2
 34 42  1
 35 36  1
 36 37  1
 36 38  2
 38 39  1
 38 40  1
 40 41  1
 40 42  2
 42 43  1
M  ZZC   1 o1
M  ZZC   2 c8
M  ZZC   3 c7
M  ZZC   4 h18
M  ZZC   5 c4
M  ZZC   6 c3
M  ZZC   7 h14
M  ZZC   8 c2
M  ZZC   9 h15
M  ZZC  10 c1
M  ZZC  11 h16
M  ZZC  12 c6
M  ZZC  13 h12
M  ZZC  14 c5
M  ZZC  15 h13
M  ZZC  16 n2
M  ZZC  17 h6
M  ZZC  18 c17
M  ZZC  19 h4
M  ZZC  20 h5
M  ZZC  21 c18
M  ZZC  22 c19
M  ZZC  23 h3
M  ZZC  24 c20
M  ZZC  25 h2
M  ZZC  26 c21
M  ZZC  27 h1
M  ZZC  28 o2
M  ZZC  29 c9
M  ZZC  30 c10
M  ZZC  31 h11
M  ZZC  32 n1
M  ZZC  33 h17
M  ZZC  34 c11
M  ZZC  35 c12
M  ZZC  36 c13
M  ZZC  37 h10
M  ZZC  38 c14
M  ZZC  39 h9
M  ZZC  40 c15
M  ZZC  41 h8
M  ZZC  42 c16
M  ZZC  43 h7
M  ZZM   1 7
M  ZZI   1 80
M  ZZM   2 3
M  ZZI   2 122
M  ZZM   3 1
M  ZZI   3 113
M  ZZM   4 5
M  ZZI   4 1
M  ZZM   5 37
M  ZZI   5 124
M  ZZM   6 37
M  ZZI   6 125
M  ZZM   7 5
M  ZZI   7 1
M  ZZM   8 37
M  ZZI   8 125
M  ZZM   9 5
M  ZZI   9 1
M  ZZM  10 37
M  ZZI  10 125
M  ZZM  11 5
M  ZZI  11 1
M  ZZM  12 37
M  ZZI  12 125
M  ZZM  13 5
M  ZZI  13 1
M  ZZM  14 37
M  ZZI  14 125
M  ZZM  15 5
M  ZZI  15 1
M  ZZM  16 8
M  ZZI  16 214
M  ZZM  17 23
M  ZZI  17 10
M  ZZM  18 1
M  ZZI  18 112
M  ZZM  19 5
M  ZZI  19 1
M  ZZM  20 5
M  ZZI  20 1
M  ZZM  21 63
M  ZZI  21 104
M  ZZM  22 64
M  ZZI  22 105
M  ZZM  23 5
M  ZZI  23 1
M  ZZM  24 64
M  ZZI  24 105
M  ZZM  25 5
M  ZZI  25 1
M  ZZM  26 63
M  ZZI  26 104
M  ZZM  27 5
M  ZZI  27 1
M  ZZM  28 59
M  ZZI  28 56
M  ZZM  29 64
M  ZZI  29 105
M  ZZM  30 63
M  ZZI  30 104
M  ZZM  31 5
M  ZZI  31 1
M  ZZM  32 39
M  ZZI  32 215
M  ZZM  33 23
M  ZZI  33 10
M  ZZM  34 63
M  ZZI  34 104
M  ZZM  35 64
M  ZZI  35 105
M  ZZM  36 37
M  ZZI  36 125
M  ZZM  37 5
M  ZZI  37 1
M  ZZM  38 37
M  ZZI  38 125
M  ZZM  39 5
M  ZZI  39 1
M  ZZM  40 37
M  ZZI  40 125
M  ZZM  41 5
M  ZZI  41 1
M  ZZM  42 37
M  ZZI  42 125
M  ZZM  43 5
M  ZZI  43 1
M  END
> <NAME>
Z53058673

> <Score>
-30.570329

> <Natom>
43

> <Nflex>
5

> <Hbond>
-3.902573

> <Hphob>
-7.11307

> <VwInt>
-31.738149

> <Eintl>
9.347719

> <Dsolv>
11.344953

> <SolEl>
6.512686

> <mfScore>
-92.100974

> <RecConf>
1

> <molLogP>
2.703323

$$$$
Z599627990
  MOLSOFT 11211612053D

 43 46  0  0  1  0  0  0  0  0999 V2000
  -36.2929    6.1175   65.2349 O   0  0  0
  -35.5758    6.1336   66.2294 C   0  0  0
  -34.7748    7.3741   66.6167 C   0  0  1
  -34.3089    7.1654   67.5831 H   0  0  0
  -33.6673    7.6942   65.6319 C   0  0  0
  -33.8583    7.6710   64.2535 C   0  0  0
  -34.8196    7.4106   63.8236 H   0  0  0
  -32.8300    7.9858   63.3911 C   0  0  0
  -32.9894    7.9384   62.3191 H   0  0  0
  -31.5983    8.3551   63.8810 C   0  0  0
  -30.7919    8.6010   63.1973 H   0  0  0
  -31.3949    8.4003   65.2418 C   0  0  0
  -30.4255    8.6895   65.6348 H   0  0  0
  -32.4143    8.0657   66.1066 C   0  0  0
  -32.2214    8.1112   67.1743 H   0  0  0
  -35.9244    8.7871   66.8429 S   0  0  0
  -34.8823    9.8555   67.8117 C   0  0  0
  -34.7631    9.6743   69.1797 C   0  0  0
  -35.3270    8.8999   69.6855 H   0  0  0
  -33.9163   10.4721   69.9203 C   0  0  0
  -33.8124   10.3216   70.9902 H   0  0  0
  -33.1970   11.4576   69.2862 C   0  0  0
  -32.3315   12.2157   70.0450 O   0  0  0
  -31.6985   12.6254   69.4290 H   0  0  0
  -33.3145   11.6708   67.9275 C   0  0  0
  -32.7463   12.4532   67.4354 H   0  0  0
  -34.1680   10.8688   67.1950 C   0  0  0
  -34.2582   11.0191   66.1247 H   0  0  0
  -35.4481    4.9423   67.0516 C   0  0  0
  -35.3238    3.6719   66.5292 C   0  0  0
  -35.2898    3.3191   65.5092 H   0  0  0
  -35.2429    2.7867   67.5618 N   0  0  0
  -35.1947    1.7808   67.4613 H   0  0  0
  -35.3122    3.4446   68.7574 C   0  0  0
  -35.4658    4.7942   68.4779 C   0  0  0
  -35.6376    5.6616   69.5496 C   0  0  0
  -35.8105    6.7177   69.3952 H   0  0  0
  -35.6142    5.1628   70.8351 C   0  0  0
  -35.7509    5.8413   71.6715 H   0  0  0
  -35.4323    3.8195   71.0769 C   0  0  0
  -35.4228    3.4547   72.0992 H   0  0  0
  -35.2800    2.9279   70.0380 C   0  0  0
  -35.1597    1.8653   70.2265 H   0  0  0
  2  1  2
  3  2  1
  2 29  1
  3  4  1
  3  5  1
  3 16  1
  5  6  2
  5 14  1
  6  7  1
  6  8  1
  8  9  1
  8 10  2
 10 11  1
 10 12  1
 12 13  1
 12 14  2
 14 15  1
 16 17  1
 17 18  2
 17 27  1
 18 19  1
 18 20  1
 20 21  1
 20 22  2
 22 23  1
 22 25  1
 23 24  1
 25 26  1
 25 27  2
 27 28  1
 29 30  2
 29 35  1
 30 31  1
 30 32  1
 32 33  1
 32 34  1
 34 35  2
 34 42  1
 35 36  1
 36 37  1
 36 38  2
 38 39  1
 38 40  1
 40 41  1
 40 42  2
 42 43  1
M  ZZC   1 o1
M  ZZC   2 c8
M  ZZC   3 c7
M  ZZC   4 h17
M  ZZC   5 c4
M  ZZC   6 c3
M  ZZC   7 h13
M  ZZC   8 c2
M  ZZC   9 h14
M  ZZC  10 c1
M  ZZC  11 h15
M  ZZC  12 c6
M  ZZC  13 h11
M  ZZC  14 c5
M  ZZC  15 h12
M  ZZC  16 s1
M  ZZC  17 c17
M  ZZC  18 c18
M  ZZC  19 h5
M  ZZC  20 c19
M  ZZC  21 h4
M  ZZC  22 c20
M  ZZC  23 o2
M  ZZC  24 h1
M  ZZC  25 c21
M  ZZC  26 h3
M  ZZC  27 c22
M  ZZC  28 h2
M  ZZC  29 c9
M  ZZC  30 c10
M  ZZC  31 h10
M  ZZC  32 n1
M  ZZC  33 h16
M  ZZC  34 c11
M  ZZC  35 c12
M  ZZC  36 c13
M  ZZC  37 h9
M  ZZC  38 c14
M  ZZC  39 h8
M  ZZC  40 c15
M  ZZC  41 h7
M  ZZC  42 c16
M  ZZC  43 h6
M  ZZM   1 7
M  ZZI   1 80
M  ZZM   2 3
M  ZZI   2 122
M  ZZM   3 1
M  ZZI   3 113
M  ZZM   4 5
M  ZZI   4 1
M  ZZM   5 37
M  ZZI   5 124
M  ZZM   6 37
M  ZZI   6 125
M  ZZM   7 5
M  ZZI   7 1
M  ZZM   8 37
M  ZZI   8 125
M  ZZM   9 5
M  ZZI   9 1
M  ZZM  10 37
M  ZZI  10 125
M  ZZM  11 5
M  ZZI  11 1
M  ZZM  12 37
M  ZZI  12 125
M  ZZM  13 5
M  ZZI  13 1
M  ZZM  14 37
M  ZZI  14 125
M  ZZM  15 5
M  ZZI  15 1
M  ZZM  16 15
M  ZZI  16 240
M  ZZM  17 37
M  ZZI  17 124
M  ZZM  18 37
M  ZZI  18 125
M  ZZM  19 5
M  ZZI  19 1
M  ZZM  20 37
M  ZZI  20 125
M  ZZM  21 5
M  ZZI  21 1
M  ZZM  22 37
M  ZZI  22 124
M  ZZM  23 6
M  ZZI  23 62
M  ZZM  24 29
M  ZZI  24 27
M  ZZM  25 37
M  ZZI  25 125
M  ZZM  26 5
M  ZZI  26 1
M  ZZM  27 37
M  ZZI  27 125
M  ZZM  28 5
M  ZZI  28 1
M  ZZM  29 64
M  ZZI  29 105
M  ZZM  30 63
M  ZZI  30 104
M  ZZM  31 5
M  ZZI  31 1
M  ZZM  32 39
M  ZZI  32 215
M  ZZM  33 23
M  ZZI  33 10
M  ZZM  34 63
M  ZZI  34 104
M  ZZM  35 64
M  ZZI  35 105
M  ZZM  36 37
M  ZZI  36 125
M  ZZM  37 5
M  ZZI  37 1
M  ZZM  38 37
M  ZZI  38 125
M  ZZM  39 5
M  ZZI  39 1
M  ZZM  40 37
M  ZZI  40 125
M  ZZM  41 5
M  ZZI  41 1
M  ZZM  42 37
M  ZZI  42 125
M  ZZM  43 5
M  ZZI  43 1
M  END
> <NAME>
Z599627990

> <Score>
-30.144024

> <Natom>
43

> <Nflex>
3

> <Hbond>
-2.998351

> <Hphob>
-6.890885

> <VwInt>
-32.994878

> <Eintl>
6.755829

> <Dsolv>
12.748822

> <SolEl>
5.593876

> <mfScore>
-82.215343

> <RecConf>
1

> <molLogP>
4.764347

$$$$
Z56919084
  MOLSOFT 11211612053D

 43 45  0  0  0  0  0  0  0  0999 V2000
  -33.0393   12.3753   67.1975 O   0  0  0
  -33.0643   11.3030   67.7880 C   0  0  0
  -32.5292   11.2740   69.1689 C   0  0  0
  -32.9472   12.2473   70.0617 C   0  0  0
  -33.6865   12.9867   69.7685 H   0  0  0
  -32.4118   12.2739   71.3343 C   0  0  0
  -32.7410   13.0289   72.0420 H   0  0  0
  -31.4489   11.3481   71.6911 C   0  0  0
  -30.7495   11.4077   73.2668 Cl  0  0  0
  -31.0250   10.3811   70.7996 C   0  0  0
  -30.2639    9.6618   71.0855 H   0  0  0
  -31.5621   10.3417   69.5289 C   0  0  0
  -31.1946    9.6036   68.8216 H   0  0  0
  -33.5768   10.0928   67.2030 C   0  0  0
  -33.8098    9.8465   65.8698 C   0  0  0
  -33.5771   10.7717   64.9018 N   0  0  0
  -33.9122   10.6498   63.9484 H   0  0  0
  -33.1884   11.7037   65.0847 H   0  0  0
  -34.3244    8.5348   65.6270 C   0  0  0
  -34.6161    7.9417   64.3435 C   0  0  0
  -35.5466    7.1678   64.1809 O   0  0  0
  -33.7425    8.2788   63.3487 N   0  0  0
  -33.8846    7.9262   62.4086 H   0  0  0
  -32.9081    8.8276   63.5240 H   0  0  0
  -34.5339    7.8217   66.7969 C   0  0  0
  -34.0621    8.7559   68.1740 S   0  0  0
  -34.9810    6.5317   66.8352 N   0  0  0
  -35.1346    6.0527   65.9470 H   0  0  0
  -35.2750    5.7062   67.9459 C   0  0  0
  -35.6494    6.1923   69.1907 C   0  0  0
  -35.7850    7.2549   69.3459 H   0  0  0
  -35.9085    5.3429   70.2490 C   0  0  0
  -36.2155    5.7801   71.1919 H   0  0  0
  -35.7655    3.9725   70.0834 C   0  0  0
  -35.3597    3.4764   68.8625 C   0  0  0
  -35.2391    2.4063   68.7238 H   0  0  0
  -35.1293    4.3344   67.8068 C   0  0  0
  -34.8190    3.9151   66.8545 H   0  0  0
  -36.0059    3.0214   71.0785 O   0  0  0
  -36.6910    3.5496   72.2191 C   0  0  0
  -36.0425    4.2240   72.7879 H   0  0  0
  -36.9499    2.7113   72.8714 H   0  0  0
  -37.6260    4.0407   71.9283 H   0  0  0
  2  1  2
  2  3  1
  2 14  1
  3  4  2
  3 12  1
  4  5  1
  4  6  1
  6  7  1
  6  8  2
  8  9  1
  8 10  1
 10 11  1
 10 12  2
 12 13  1
 14 15  2
 14 26  1
 15 16  1
 15 19  1
 16 17  1
 16 18  1
 19 20  1
 19 25  2
 20 21  2
 20 22  1
 22 23  1
 22 24  1
 25 26  1
 25 27  1
 27 28  1
 27 29  1
 29 30  2
 29 37  1
 30 31  1
 30 32  1
 32 33  1
 32 34  2
 34 35  1
 34 39  1
 35 36  1
 35 37  2
 37 38  1
 39 40  1
 40 41  1
 40 42  1
 40 43  1
M  ZZC   1 o2
M  ZZC   2 c12
M  ZZC   3 c13
M  ZZC   4 c14
M  ZZC   5 h8
M  ZZC   6 c15
M  ZZC   7 h7
M  ZZC   8 c16
M  ZZC   9 &Cl1
M  ZZC  10 c17
M  ZZC  11 h6
M  ZZC  12 c18
M  ZZC  13 h5
M  ZZC  14 c11
M  ZZC  15 c10
M  ZZC  16 n2
M  ZZC  17 h3
M  ZZC  18 h4
M  ZZC  19 c9
M  ZZC  20 c19
M  ZZC  21 o3
M  ZZC  22 n3
M  ZZC  23 h1
M  ZZC  24 h2
M  ZZC  25 c8
M  ZZC  26 s1
M  ZZC  27 n1
M  ZZC  28 h9
M  ZZC  29 c5
M  ZZC  30 c4
M  ZZC  31 h12
M  ZZC  32 c3
M  ZZC  33 h13
M  ZZC  34 c2
M  ZZC  35 c7
M  ZZC  36 h10
M  ZZC  37 c6
M  ZZC  38 h11
M  ZZC  39 o1
M  ZZC  40 c1
M  ZZC  41 h14
M  ZZC  42 h15
M  ZZC  43 h16
M  ZZM   1 7
M  ZZI   1 80
M  ZZM   2 3
M  ZZI   2 122
M  ZZM   3 37
M  ZZI   3 124
M  ZZM   4 37
M  ZZI   4 125
M  ZZM   5 5
M  ZZI   5 1
M  ZZM   6 37
M  ZZI   6 125
M  ZZM   7 5
M  ZZI   7 1
M  ZZM   8 37
M  ZZI   8 124
M  ZZM   9 12
M  ZZI   9 92
M  ZZM  10 37
M  ZZI  10 125
M  ZZM  11 5
M  ZZI  11 1
M  ZZM  12 37
M  ZZI  12 125
M  ZZM  13 5
M  ZZI  13 1
M  ZZM  14 63
M  ZZI  14 104
M  ZZM  15 64
M  ZZI  15 105
M  ZZM  16 40
M  ZZI  16 224
M  ZZM  17 28
M  ZZI  17 11
M  ZZM  18 28
M  ZZI  18 11
M  ZZM  19 64
M  ZZI  19 105
M  ZZM  20 3
M  ZZI  20 121
M  ZZM  21 7
M  ZZI  21 81
M  ZZM  22 10
M  ZZI  22 212
M  ZZM  23 28
M  ZZI  23 11
M  ZZM  24 28
M  ZZI  24 11
M  ZZM  25 63
M  ZZI  25 104
M  ZZM  26 44
M  ZZI  26 248
M  ZZM  27 40
M  ZZI  27 194
M  ZZM  28 28
M  ZZI  28 11
M  ZZM  29 37
M  ZZI  29 124
M  ZZM  30 37
M  ZZI  30 125
M  ZZM  31 5
M  ZZI  31 1
M  ZZM  32 37
M  ZZI  32 125
M  ZZM  33 5
M  ZZI  33 1
M  ZZM  34 37
M  ZZI  34 124
M  ZZM  35 37
M  ZZI  35 125
M  ZZM  36 5
M  ZZI  36 1
M  ZZM  37 37
M  ZZI  37 125
M  ZZM  38 5
M  ZZI  38 1
M  ZZM  39 6
M  ZZI  39 59
M  ZZM  40 1
M  ZZI  40 111
M  ZZM  41 5
M  ZZI  41 1
M  ZZM  42 5
M  ZZI  42 1
M  ZZM  43 5
M  ZZI  43 1
M  END
> <NAME>
Z56919084

> <Score>
-29.570803

> <Natom>
43

> <Nflex>
1

> <Hbond>
-6.73447

> <Hphob>
-6.099407

> <VwInt>
-26.887921

> <Eintl>
2.879338

> <Dsolv>
14.744541

> <SolEl>
10.278064

> <mfScore>
-87.027202

> <RecConf>
1

> <molLogP>
3.811366

$$$$
Z194460378
  MOLSOFT 11211612053D

 43 44  0  0  1  0  0  0  0  0999 V2000
  -30.2186   10.2771   70.9886 O   0  0  0
  -30.8591   10.2727   69.9479 C   0  0  0
  -32.0446   11.1528   69.7936 C   0  0  0
  -32.2639   11.8120   70.6255 H   0  0  0
  -32.7741   11.1505   68.6748 C   0  0  0
  -33.9456   12.0604   68.4873 C   0  0  0
  -34.8778   11.4908   68.4214 H   0  0  0
  -33.8313   12.6553   67.5765 H   0  0  0
  -34.0273   12.7737   69.3122 H   0  0  0
  -32.4161   10.2326   67.6340 C   0  0  0
  -31.3275    9.4620   67.7537 C   0  0  0
  -30.5176    9.4778   68.8803 O   0  0  0
  -30.8557    8.5303   66.6787 C   0  0  0
  -31.5427    7.6914   66.5474 H   0  0  0
  -29.8716    8.1237   66.9285 H   0  0  0
  -30.7465    9.0453   65.7208 H   0  0  0
  -33.2234   10.0863   66.3989 C   0  0  0
  -33.3344   10.9459   65.5388 O   0  0  0
  -33.8130    8.8554   66.4097 O   0  0  0
  -34.6513    8.5863   65.2781 C   0  0  1
  -35.2503    9.4675   65.0211 H   0  0  0
  -33.8167    8.1002   64.0952 C   0  0  0
  -34.4432    7.8870   63.2239 H   0  0  0
  -33.2771    7.1827   64.3506 H   0  0  0
  -33.0627    8.8379   63.8073 H   0  0  0
  -35.6001    7.4895   65.7173 C   0  0  0
  -36.3039    6.8940   64.9195 O   0  0  0
  -35.5951    7.2492   67.0734 N   0  0  0
  -34.9379    7.7546   67.6584 H   0  0  0
  -36.4269    6.2239   67.6671 C   0  0  0
  -36.7661    6.6038   68.6350 H   0  0  0
  -37.3169    6.0691   67.0488 H   0  0  0
  -35.6867    4.9241   67.8448 C   0  0  0
  -35.3009    4.1613   66.7494 C   0  0  0
  -35.5329    4.4888   65.7411 H   0  0  0
  -34.6213    2.9735   66.9201 C   0  0  0
  -34.3261    2.3906   66.0545 H   0  0  0
  -34.3209    2.5222   68.1869 C   0  0  0
  -33.7878    1.5858   68.3177 H   0  0  0
  -34.7042    3.2646   69.2834 C   0  0  0
  -34.4734    2.9098   70.2827 H   0  0  0
  -35.3785    4.4581   69.1154 C   0  0  0
  -35.6678    5.0256   69.9948 H   0  0  0
  2  1  2
  2  3  1
  2 12  1
  3  4  1
  3  5  2
  5  6  1
  5 10  1
  6  7  1
  6  8  1
  6  9  1
 10 11  2
 10 17  1
 11 12  1
 11 13  1
 13 14  1
 13 15  1
 13 16  1
 17 18  2
 17 19  1
 20 19  1
 20 21  1
 20 22  1
 20 26  1
 22 23  1
 22 24  1
 22 25  1
 26 27  2
 26 28  1
 28 29  1
 28 30  1
 30 31  1
 30 32  1
 30 33  1
 33 34  2
 33 42  1
 34 35  1
 34 36  1
 36 37  1
 36 38  2
 38 39  1
 38 40  1
 40 41  1
 40 42  2
 42 43  1
M  ZZC   1 o1
M  ZZC   2 c4
M  ZZC   3 c3
M  ZZC   4 h15
M  ZZC   5 c2
M  ZZC   6 c1
M  ZZC   7 h16
M  ZZC   8 h17
M  ZZC   9 h18
M  ZZC  10 c6
M  ZZC  11 c5
M  ZZC  12 o2
M  ZZC  13 c18
M  ZZC  14 h1
M  ZZC  15 h2
M  ZZC  16 h3
M  ZZC  17 c7
M  ZZC  18 o3
M  ZZC  19 o4
M  ZZC  20 c8
M  ZZC  21 h19
M  ZZC  22 c9
M  ZZC  23 h12
M  ZZC  24 h13
M  ZZC  25 h14
M  ZZC  26 c10
M  ZZC  27 o5
M  ZZC  28 n1
M  ZZC  29 h11
M  ZZC  30 c11
M  ZZC  31 h10
M  ZZC  32 h9
M  ZZC  33 c12
M  ZZC  34 c13
M  ZZC  35 h8
M  ZZC  36 c14
M  ZZC  37 h7
M  ZZC  38 c15
M  ZZC  39 h6
M  ZZC  40 c16
M  ZZC  41 h5
M  ZZC  42 c17
M  ZZC  43 h4
M  ZZM   1 7
M  ZZI   1 82
M  ZZM   2 3
M  ZZI   2 123
M  ZZM   3 2
M  ZZI   3 120
M  ZZM   4 5
M  ZZI   4 1
M  ZZM   5 2
M  ZZI   5 120
M  ZZM   6 1
M  ZZI   6 111
M  ZZM   7 5
M  ZZI   7 1
M  ZZM   8 5
M  ZZI   8 1
M  ZZM   9 5
M  ZZI   9 1
M  ZZM  10 2
M  ZZI  10 120
M  ZZM  11 2
M  ZZI  11 120
M  ZZM  12 6
M  ZZI  12 65
M  ZZM  13 1
M  ZZI  13 111
M  ZZM  14 5
M  ZZI  14 1
M  ZZM  15 5
M  ZZI  15 1
M  ZZM  16 5
M  ZZI  16 1
M  ZZM  17 3
M  ZZI  17 123
M  ZZM  18 7
M  ZZI  18 82
M  ZZM  19 6
M  ZZI  19 65
M  ZZM  20 1
M  ZZI  20 113
M  ZZM  21 5
M  ZZI  21 1
M  ZZM  22 1
M  ZZI  22 111
M  ZZM  23 5
M  ZZI  23 1
M  ZZM  24 5
M  ZZI  24 1
M  ZZM  25 5
M  ZZI  25 1
M  ZZM  26 3
M  ZZI  26 121
M  ZZM  27 7
M  ZZI  27 81
M  ZZM  28 10
M  ZZI  28 211
M  ZZM  29 28
M  ZZI  29 11
M  ZZM  30 1
M  ZZI  30 112
M  ZZM  31 5
M  ZZI  31 1
M  ZZM  32 5
M  ZZI  32 1
M  ZZM  33 37
M  ZZI  33 124
M  ZZM  34 37
M  ZZI  34 125
M  ZZM  35 5
M  ZZI  35 1
M  ZZM  36 37
M  ZZI  36 125
M  ZZM  37 5
M  ZZI  37 1
M  ZZM  38 37
M  ZZI  38 125
M  ZZM  39 5
M  ZZI  39 1
M  ZZM  40 37
M  ZZI  40 125
M  ZZM  41 5
M  ZZI  41 1
M  ZZM  42 37
M  ZZI  42 125
M  ZZM  43 5
M  ZZI  43 1
M  END
> <NAME>
Z194460378

> <Score>
-29.146539

> <Natom>
43

> <Nflex>
4

> <Hbond>
-4.061356

> <Hphob>
-6.726631

> <VwInt>
-28.171454

> <Eintl>
6.650689

> <Dsolv>
11.671852

> <SolEl>
4.019846

> <mfScore>
-67.383731

> <RecConf>
1

> <molLogP>
1.358887

$$$$
Z1139319589
  MOLSOFT 11211612053D

 43 46  0  0  1  0  0  0  0  0999 V2000
  -33.6835    0.9280   68.3647 F   0  0  0
  -34.2642    2.1343   68.2889 C   0  0  0
  -34.6593    2.6317   67.0718 C   0  0  0
  -34.4964    2.0559   66.1701 H   0  0  0
  -35.2806    3.8605   67.0039 C   0  0  0
  -35.6119    4.1997   66.0315 H   0  0  0
  -35.4891    4.6426   68.1348 C   0  0  0
  -35.0722    4.0996   69.3457 C   0  0  0
  -35.2275    4.6635   70.2605 H   0  0  0
  -34.4718    2.8603   69.4332 C   0  0  0
  -34.1631    2.4589   70.3923 H   0  0  0
  -36.1501    5.9832   68.1291 C   0  0  2
  -37.0716    6.0088   68.7005 H   0  0  0
  -36.0772    7.0875   67.0755 C   0  0  1
  -36.9489    7.7268   67.0587 H   0  0  0
  -35.2276    7.1570   68.3153 C   0  0  0
  -35.4870    7.8801   69.0778 H   0  0  0
  -34.1636    6.9682   68.2440 H   0  0  0
  -35.5810    6.8564   65.6945 C   0  0  0
  -36.2019    6.0753   64.9936 O   0  0  0
  -34.5175    7.6095   65.2125 N   0  0  0
  -33.8241    8.7096   65.8618 C   0  0  1
  -33.3561    8.3256   66.7729 H   0  0  0
  -32.7368    9.1138   64.8640 C   0  0  0
  -31.8041    9.4003   65.3597 H   0  0  0
  -33.0557    9.9573   64.2435 H   0  0  0
  -32.5604    7.9022   63.9835 C   0  0  0
  -32.1466    8.1402   62.9986 H   0  0  0
  -31.8923    7.1914   64.4735 H   0  0  0
  -33.9546    7.3338   63.9110 C   0  0  0
  -33.9555    6.2639   63.6930 H   0  0  0
  -34.5633    7.8509   63.1612 H   0  0  0
  -34.7516    9.8908   66.1726 C   0  0  0
  -35.0386   10.4310   65.2650 H   0  0  0
  -35.6805    9.5819   66.6556 H   0  0  0
  -34.1198   10.8395   67.0758 N   0  0  0
  -34.3526   10.9607   68.4209 C   0  0  0
  -35.0824   10.3544   68.9366 H   0  0  0
  -33.4969   11.9389   68.8587 C   0  0  0
  -33.3832   12.3103   69.8668 H   0  0  0
  -32.7992   12.3415   67.7047 C   0  0  0
  -32.0249   13.0843   67.6221 H   0  0  0
  -33.1871   11.6904   66.6047 N   0  0  0
  2  1  1
  2  3  1
  2 10  2
  3  4  1
  3  5  2
  5  6  1
  5  7  1
  7  8  2
 12  7  1
  8  9  1
  8 10  1
 10 11  1
 12 13  1
 12 14  1
 12 16  1
 14 15  1
 14 16  1
 14 19  1
 16 17  1
 16 18  1
 19 20  2
 19 21  1
 22 21  1
 21 30  1
 22 23  1
 22 24  1
 22 33  1
 24 25  1
 24 26  1
 24 27  1
 27 28  1
 27 29  1
 27 30  1
 30 31  1
 30 32  1
 33 34  1
 33 35  1
 33 36  1
 36 37  1
 36 43  1
 37 38  1
 37 39  2
 39 40  1
 39 41  1
 41 42  1
 41 43  2
M  ZZC   1 f1
M  ZZC   2 c16
M  ZZC   3 c15
M  ZZC   4 h3
M  ZZC   5 c14
M  ZZC   6 h4
M  ZZC   7 c13
M  ZZC   8 c18
M  ZZC   9 h1
M  ZZC  10 c17
M  ZZC  11 h2
M  ZZC  12 c12
M  ZZC  13 h18
M  ZZC  14 c10
M  ZZC  15 h19
M  ZZC  16 c11
M  ZZC  17 h5
M  ZZC  18 h6
M  ZZC  19 c9
M  ZZC  20 o1
M  ZZC  21 n3
M  ZZC  22 c5
M  ZZC  23 h20
M  ZZC  24 c6
M  ZZC  25 h11
M  ZZC  26 h12
M  ZZC  27 c7
M  ZZC  28 h10
M  ZZC  29 h9
M  ZZC  30 c8
M  ZZC  31 h7
M  ZZC  32 h8
M  ZZC  33 c4
M  ZZC  34 h13
M  ZZC  35 h14
M  ZZC  36 n2
M  ZZC  37 c3
M  ZZC  38 h15
M  ZZC  39 c1
M  ZZC  40 h17
M  ZZC  41 c2
M  ZZC  42 h16
M  ZZC  43 n1
M  ZZM   1 11
M  ZZI   1 90
M  ZZM   2 37
M  ZZI   2 124
M  ZZM   3 37
M  ZZI   3 125
M  ZZM   4 5
M  ZZI   4 1
M  ZZM   5 37
M  ZZI   5 125
M  ZZM   6 5
M  ZZI   6 1
M  ZZM   7 37
M  ZZI   7 124
M  ZZM   8 37
M  ZZI   8 125
M  ZZM   9 5
M  ZZI   9 1
M  ZZM  10 37
M  ZZI  10 125
M  ZZM  11 5
M  ZZI  11 1
M  ZZM  12 22
M  ZZI  12 109
M  ZZM  13 5
M  ZZI  13 1
M  ZZM  14 22
M  ZZI  14 109
M  ZZM  15 5
M  ZZI  15 1
M  ZZM  16 22
M  ZZI  16 109
M  ZZM  17 5
M  ZZI  17 1
M  ZZM  18 5
M  ZZI  18 1
M  ZZM  19 3
M  ZZI  19 121
M  ZZM  20 7
M  ZZI  20 81
M  ZZM  21 10
M  ZZI  21 192
M  ZZM  22 1
M  ZZI  22 113
M  ZZM  23 5
M  ZZI  23 1
M  ZZM  24 1
M  ZZI  24 112
M  ZZM  25 5
M  ZZI  25 1
M  ZZM  26 5
M  ZZI  26 1
M  ZZM  27 1
M  ZZI  27 112
M  ZZM  28 5
M  ZZI  28 1
M  ZZM  29 5
M  ZZI  29 1
M  ZZM  30 1
M  ZZI  30 112
M  ZZM  31 5
M  ZZI  31 1
M  ZZM  32 5
M  ZZI  32 1
M  ZZM  33 1
M  ZZI  33 112
M  ZZM  34 5
M  ZZI  34 1
M  ZZM  35 5
M  ZZI  35 1
M  ZZM  36 39
M  ZZI  36 215
M  ZZM  37 63
M  ZZI  37 104
M  ZZM  38 5
M  ZZI  38 1
M  ZZM  39 64
M  ZZI  39 105
M  ZZM  40 5
M  ZZI  40 1
M  ZZM  41 64
M  ZZI  41 105
M  ZZM  42 5
M  ZZI  42 1
M  ZZM  43 65
M  ZZI  43 207
M  END
> <NAME>
Z1139319589

> <Score>
-29.027425

> <Natom>
43

> <Nflex>
5

> <Hbond>
-2.734317

> <Hphob>
-6.791158

> <VwInt>
-27.453707

> <Eintl>
9.188018

> <Dsolv>
7.03414

> <SolEl>
2.452386

> <mfScore>
-86.223888

> <RecConf>
1

> <molLogP>
2.458173

$$$$
Z1272770000
  MOLSOFT 11211612053D

 43 46  0  0  1  0  0  0  0  0999 V2000
  -32.2197   12.8920   71.2002 H   0  0  0
  -31.6258   11.9994   71.3354 C   0  0  0
  -31.5392   11.0166   70.3830 N   0  0  0
  -30.7180   10.0437   70.8976 C   0  0  0
  -30.4559    9.1358   70.3755 H   0  0  0
  -30.3587   10.4960   72.1451 C   0  0  0
  -29.7265   10.0014   72.8699 H   0  0  0
  -30.9172   11.7168   72.4077 N   0  0  0
  -32.1999   11.0459   69.1329 C   0  0  0
  -32.0851    9.9818   68.2559 C   0  0  0
  -31.5083    9.0955   68.4873 H   0  0  0
  -32.7940   10.0376   67.0736 C   0  0  0
  -33.4786   11.1331   66.7350 N   0  0  0
  -33.5231   12.0982   67.6558 C   0  0  0
  -34.1057   12.9723   67.3977 H   0  0  0
  -32.9421   12.1222   68.8549 N   0  0  0
  -32.7866    8.9037   66.2422 N   0  0  0
  -32.4430    8.0489   66.6738 H   0  0  0
  -33.8343    8.7614   65.2180 C   0  0  1
  -33.9154    9.6839   64.6310 H   0  0  0
  -33.4020    7.6669   64.2330 C   0  0  0
  -33.2085    6.7242   64.7492 H   0  0  0
  -32.4689    7.9400   63.7287 H   0  0  0
  -34.4006    7.4280   63.2436 O   0  0  0
  -34.1755    7.9529   62.4538 H   0  0  0
  -35.2240    8.4846   65.8447 C   0  0  0
  -35.6625    9.4436   66.1400 H   0  0  0
  -35.9158    8.0899   65.0957 H   0  0  0
  -35.2349    7.5999   67.0499 C   0  0  0
  -35.2300    6.1694   67.1083 C   0  0  0
  -35.2356    5.8014   68.4451 C   0  0  0
  -35.2717    6.9538   69.1811 N   0  0  0
  -35.2968    6.9940   70.1925 H   0  0  0
  -35.2831    8.0401   68.3571 C   0  0  0
  -35.3181    9.0400   68.7688 H   0  0  0
  -35.2135    4.4865   68.8719 C   0  0  0
  -35.2198    4.2232   69.9249 H   0  0  0
  -35.1805    3.5100   67.8992 C   0  0  0
  -35.1593    2.4637   68.1879 H   0  0  0
  -35.1840    3.8423   66.5633 C   0  0  0
  -35.1618    3.0518   65.8201 H   0  0  0
  -35.2199    5.1600   66.1547 C   0  0  0
  -35.2314    5.3975   65.0991 H   0  0  0
  2  1  1
  2  3  1
  2  8  2
  3  4  1
  3  9  1
  4  5  1
  4  6  2
  6  7  1
  6  8  1
  9 10  2
  9 16  1
 10 11  1
 10 12  1
 12 13  2
 12 17  1
 13 14  1
 14 15  1
 14 16  2
 17 18  1
 19 17  1
 19 20  1
 19 21  1
 19 26  1
 21 22  1
 21 23  1
 21 24  1
 24 25  1
 26 27  1
 26 28  1
 26 29  1
 29 30  1
 29 34  2
 30 31  2
 30 42  1
 31 32  1
 31 36  1
 32 33  1
 32 34  1
 34 35  1
 36 37  1
 36 38  2
 38 39  1
 38 40  1
 40 41  1
 40 42  2
 42 43  1
M  ZZC   1 h1
M  ZZC   2 c18
M  ZZC   3 n5
M  ZZC   4 c16
M  ZZC   5 h3
M  ZZC   6 c17
M  ZZC   7 h2
M  ZZC   8 n6
M  ZZC   9 c14
M  ZZC  10 c13
M  ZZC  11 h5
M  ZZC  12 c12
M  ZZC  13 n4
M  ZZC  14 c15
M  ZZC  15 h4
M  ZZC  16 n3
M  ZZC  17 n2
M  ZZC  18 h6
M  ZZC  19 c10
M  ZZC  20 h17
M  ZZC  21 c11
M  ZZC  22 h8
M  ZZC  23 h9
M  ZZC  24 o1
M  ZZC  25 h7
M  ZZC  26 c9
M  ZZC  27 h10
M  ZZC  28 h11
M  ZZC  29 c7
M  ZZC  30 c5
M  ZZC  31 c4
M  ZZC  32 n1
M  ZZC  33 h18
M  ZZC  34 c8
M  ZZC  35 h12
M  ZZC  36 c3
M  ZZC  37 h14
M  ZZC  38 c2
M  ZZC  39 h15
M  ZZC  40 c1
M  ZZC  41 h16
M  ZZC  42 c6
M  ZZC  43 h13
M  ZZM   1 5
M  ZZI   1 6
M  ZZM   2 63
M  ZZI   2 104
M  ZZM   3 39
M  ZZI   3 215
M  ZZM   4 63
M  ZZI   4 104
M  ZZM   5 5
M  ZZI   5 1
M  ZZM   6 64
M  ZZI   6 105
M  ZZM   7 5
M  ZZI   7 1
M  ZZM   8 66
M  ZZI   8 222
M  ZZM   9 37
M  ZZI   9 124
M  ZZM  10 37
M  ZZI  10 125
M  ZZM  11 5
M  ZZI  11 1
M  ZZM  12 37
M  ZZI  12 124
M  ZZM  13 38
M  ZZI  13 223
M  ZZM  14 37
M  ZZI  14 125
M  ZZM  15 5
M  ZZI  15 6
M  ZZM  16 38
M  ZZI  16 223
M  ZZM  17 40
M  ZZI  17 194
M  ZZM  18 28
M  ZZI  18 11
M  ZZM  19 1
M  ZZI  19 113
M  ZZM  20 5
M  ZZI  20 1
M  ZZM  21 1
M  ZZI  21 112
M  ZZM  22 5
M  ZZI  22 1
M  ZZM  23 5
M  ZZI  23 1
M  ZZM  24 6
M  ZZI  24 60
M  ZZM  25 21
M  ZZI  25 20
M  ZZM  26 1
M  ZZI  26 112
M  ZZM  27 5
M  ZZI  27 1
M  ZZM  28 5
M  ZZI  28 1
M  ZZM  29 64
M  ZZI  29 105
M  ZZM  30 64
M  ZZI  30 105
M  ZZM  31 63
M  ZZI  31 104
M  ZZM  32 39
M  ZZI  32 215
M  ZZM  33 23
M  ZZI  33 10
M  ZZM  34 63
M  ZZI  34 104
M  ZZM  35 5
M  ZZI  35 1
M  ZZM  36 37
M  ZZI  36 125
M  ZZM  37 5
M  ZZI  37 1
M  ZZM  38 37
M  ZZI  38 125
M  ZZM  39 5
M  ZZI  39 1
M  ZZM  40 37
M  ZZI  40 125
M  ZZM  41 5
M  ZZI  41 1
M  ZZM  42 37
M  ZZI  42 125
M  ZZM  43 5
M  ZZI  43 1
M  END
> <NAME>
Z1272770000

> <Score>
-28.665347

> <Natom>
43

> <Nflex>
5

> <Hbond>
-5.239593

> <Hphob>
-6.13924

> <VwInt>
-31.119595

> <Eintl>
9.710044

> <Dsolv>
17.620471

> <SolEl>
5.467204

> <mfScore>
-84.706046

> <RecConf>
1

> <molLogP>
1.838599

$$$$
Z1614065596
  MOLSOFT 11211612053D

 43 44  0  0  1  0  0  0  0  0999 V2000
  -35.5450    6.3909   69.2927 F   0  0  0
  -35.3201    5.2598   68.6042 C   0  0  0
  -34.9532    4.1291   69.3026 C   0  0  0
  -34.8488    4.1605   70.3816 H   0  0  0
  -34.7229    2.9620   68.6089 C   0  0  0
  -34.3547    1.8407   69.3243 O   0  0  0
  -34.3198    1.0953   68.6998 H   0  0  0
  -34.8588    2.9048   67.2352 C   0  0  0
  -34.6731    1.9863   66.6911 H   0  0  0
  -35.2397    4.0356   66.5429 C   0  0  0
  -35.3512    3.9811   65.4663 H   0  0  0
  -35.4662    5.2236   67.2241 C   0  0  0
  -35.8583    6.4221   66.4376 C   0  0  0
  -36.2645    6.2670   65.2949 O   0  0  0
  -35.7134    7.6407   67.0664 N   0  0  0
  -35.4183    7.6827   68.0358 H   0  0  0
  -35.9963    8.8850   66.3769 C   0  0  0
  -36.3713    8.6622   65.3736 H   0  0  0
  -36.8209    9.3635   66.9104 H   0  0  0
  -34.7762    9.8195   66.3116 C   0  0  1
  -35.0736   10.6758   65.7013 H   0  0  0
  -34.4432   10.3798   67.7141 C   0  0  0
  -35.3733   10.5753   68.2582 H   0  0  0
  -33.9176    9.6272   68.3094 H   0  0  0
  -33.6450   11.6928   67.6980 C   0  0  1
  -34.2720   12.4941   67.3004 H   0  0  0
  -33.1782   12.0794   69.0959 C   0  0  0
  -32.6326   13.0267   69.0692 H   0  0  0
  -32.4889   11.3329   69.5018 H   0  0  0
  -34.0136   12.1921   69.7873 H   0  0  0
  -32.5154   11.5893   66.8357 O   0  0  0
  -31.7497   11.9962   67.2798 H   0  0  0
  -33.6296    9.1598   65.5570 C   0  0  0
  -33.7738    8.8894   64.2005 C   0  0  0
  -34.7066    9.1162   63.6955 H   0  0  0
  -32.7421    8.3454   63.4641 C   0  0  0
  -32.8756    8.1339   62.4084 H   0  0  0
  -31.5302    8.0881   64.0603 C   0  0  0
  -30.7051    7.6966   63.4743 H   0  0  0
  -31.3726    8.3245   65.4065 C   0  0  0
  -30.4199    8.1219   65.8845 H   0  0  0
  -32.4158    8.8268   66.1516 C   0  0  0
  -32.2405    8.9897   67.2081 H   0  0  0
  2  1  1
  2  3  2
  2 12  1
  3  4  1
  3  5  1
  5  6  1
  5  8  2
  6  7  1
  8  9  1
  8 10  1
 10 11  1
 10 12  2
 12 13  1
 13 14  2
 13 15  1
 15 16  1
 15 17  1
 17 18  1
 17 19  1
 20 17  1
 20 21  1
 20 22  1
 20 33  1
 22 23  1
 22 24  1
 25 22  1
 25 26  1
 25 27  1
 25 31  1
 27 28  1
 27 29  1
 27 30  1
 31 32  1
 33 34  2
 33 42  1
 34 35  1
 34 36  1
 36 37  1
 36 38  2
 38 39  1
 38 40  1
 40 41  1
 40 42  2
 42 43  1
M  ZZC   1 f1
M  ZZC   2 c12
M  ZZC   3 c11
M  ZZC   4 h8
M  ZZC   5 c10
M  ZZC   6 o2
M  ZZC   7 h7
M  ZZC   8 c9
M  ZZC   9 h9
M  ZZC  10 c8
M  ZZC  11 h10
M  ZZC  12 c7
M  ZZC  13 c6
M  ZZC  14 o1
M  ZZC  15 n1
M  ZZC  16 h11
M  ZZC  17 c5
M  ZZC  18 h12
M  ZZC  19 h13
M  ZZC  20 c4
M  ZZC  21 h19
M  ZZC  22 c3
M  ZZC  23 h14
M  ZZC  24 h15
M  ZZC  25 c2
M  ZZC  26 h20
M  ZZC  27 c1
M  ZZC  28 h16
M  ZZC  29 h17
M  ZZC  30 h18
M  ZZC  31 o3
M  ZZC  32 h1
M  ZZC  33 c13
M  ZZC  34 c14
M  ZZC  35 h6
M  ZZC  36 c15
M  ZZC  37 h5
M  ZZC  38 c16
M  ZZC  39 h4
M  ZZC  40 c17
M  ZZC  41 h3
M  ZZC  42 c18
M  ZZC  43 h2
M  ZZM   1 11
M  ZZI   1 90
M  ZZM   2 37
M  ZZI   2 124
M  ZZM   3 37
M  ZZI   3 125
M  ZZM   4 5
M  ZZI   4 1
M  ZZM   5 37
M  ZZI   5 124
M  ZZM   6 6
M  ZZI   6 62
M  ZZM   7 29
M  ZZI   7 27
M  ZZM   8 37
M  ZZI   8 125
M  ZZM   9 5
M  ZZI   9 1
M  ZZM  10 37
M  ZZI  10 125
M  ZZM  11 5
M  ZZI  11 1
M  ZZM  12 37
M  ZZI  12 124
M  ZZM  13 3
M  ZZI  13 121
M  ZZM  14 7
M  ZZI  14 81
M  ZZM  15 10
M  ZZI  15 211
M  ZZM  16 28
M  ZZI  16 11
M  ZZM  17 1
M  ZZI  17 112
M  ZZM  18 5
M  ZZI  18 1
M  ZZM  19 5
M  ZZI  19 1
M  ZZM  20 1
M  ZZI  20 113
M  ZZM  21 5
M  ZZI  21 1
M  ZZM  22 1
M  ZZI  22 112
M  ZZM  23 5
M  ZZI  23 1
M  ZZM  24 5
M  ZZI  24 1
M  ZZM  25 1
M  ZZI  25 113
M  ZZM  26 5
M  ZZI  26 1
M  ZZM  27 1
M  ZZI  27 111
M  ZZM  28 5
M  ZZI  28 1
M  ZZM  29 5
M  ZZI  29 1
M  ZZM  30 5
M  ZZI  30 1
M  ZZM  31 6
M  ZZI  31 60
M  ZZM  32 21
M  ZZI  32 20
M  ZZM  33 37
M  ZZI  33 124
M  ZZM  34 37
M  ZZI  34 125
M  ZZM  35 5
M  ZZI  35 1
M  ZZM  36 37
M  ZZI  36 125
M  ZZM  37 5
M  ZZI  37 1
M  ZZM  38 37
M  ZZI  38 125
M  ZZM  39 5
M  ZZI  39 1
M  ZZM  40 37
M  ZZI  40 125
M  ZZM  41 5
M  ZZI  41 1
M  ZZM  42 37
M  ZZI  42 125
M  ZZM  43 5
M  ZZI  43 1
M  END
> <NAME>
Z1614065596

> <Score>
-27.533043

> <Natom>
43

> <Nflex>
6

> <Hbond>
-3.807141

> <Hphob>
-6.504089

> <VwInt>
-28.64209

> <Eintl>
8.553075

> <Dsolv>
11.923324

> <SolEl>
3.873274

> <mfScore>
-91.763813

> <RecConf>
1

> <molLogP>
3.171253

$$$$
Z214761130
  MOLSOFT 11211612053D

 43 46  0  0  1  0  0  0  0  0999 V2000
  -36.2945    6.0958   65.1660 O   0  0  0
  -35.5855    6.1480   66.1641 C   0  0  0
  -34.8047    7.4091   66.5158 C   0  0  1
  -34.3558    7.2392   67.4967 H   0  0  0
  -33.6784    7.7103   65.5484 C   0  0  0
  -33.8415    7.6545   64.1676 C   0  0  0
  -34.7919    7.3754   63.7250 H   0  0  0
  -32.7994    7.9632   63.3198 C   0  0  0
  -32.9375    7.8948   62.2457 H   0  0  0
  -31.5811    8.3548   63.8268 C   0  0  0
  -30.7639    8.5957   63.1543 H   0  0  0
  -31.4051    8.4290   65.1907 C   0  0  0
  -30.4466    8.7356   65.5969 H   0  0  0
  -32.4398    8.1047   66.0419 C   0  0  0
  -32.2690    8.1742   67.1121 H   0  0  0
  -35.9613    8.8195   66.6503 S   0  0  0
  -35.0307    9.7696   67.8104 C   0  0  0
  -34.2970   10.7720   67.3425 N   0  0  0
  -33.5257   11.3558   68.2461 C   0  0  0
  -32.7011   12.3688   67.8174 N   0  0  0
  -32.0025   12.7209   68.4634 H   0  0  0
  -32.7122   12.6149   66.8375 H   0  0  0
  -33.4600   11.0148   69.5236 N   0  0  0
  -34.2535   10.0228   69.8914 C   0  0  0
  -35.0524    9.3579   69.0732 N   0  0  0
  -34.2615    9.6655   71.2240 N   0  0  0
  -34.9460    8.9842   71.5385 H   0  0  0
  -33.6577   10.1760   71.8598 H   0  0  0
  -35.4584    4.9841   67.0242 C   0  0  0
  -35.3588    3.6969   66.5396 C   0  0  0
  -35.3448    3.3124   65.5302 H   0  0  0
  -35.2781    2.8416   67.5971 N   0  0  0
  -35.2594    1.8321   67.5247 H   0  0  0
  -35.3196    3.5371   68.7735 C   0  0  0
  -35.4534    4.8811   68.4553 C   0  0  0
  -35.5912    5.7848   69.5039 C   0  0  0
  -35.7448    6.8414   69.3257 H   0  0  0
  -35.5548    5.3231   70.8028 C   0  0  0
  -35.6639    6.0285   71.6207 H   0  0  0
  -35.3930    3.9845   71.0820 C   0  0  0
  -35.3717    3.6508   72.1146 H   0  0  0
  -35.2773    3.0588   70.0681 C   0  0  0
  -35.1738    2.0002   70.2871 H   0  0  0
  2  1  2
  3  2  1
  2 29  1
  3  4  1
  3  5  1
  3 16  1
  5  6  2
  5 14  1
  6  7  1
  6  8  1
  8  9  1
  8 10  2
 10 11  1
 10 12  1
 12 13  1
 12 14  2
 14 15  1
 16 17  1
 17 18  1
 17 25  2
 18 19  2
 19 20  1
 19 23  1
 20 21  1
 20 22  1
 23 24  2
 24 25  1
 24 26  1
 26 27  1
 26 28  1
 29 30  2
 29 35  1
 30 31  1
 30 32  1
 32 33  1
 32 34  1
 34 35  2
 34 42  1
 35 36  1
 36 37  1
 36 38  2
 38 39  1
 38 40  1
 40 41  1
 40 42  2
 42 43  1
M  ZZC   1 o1
M  ZZC   2 c8
M  ZZC   3 c7
M  ZZC   4 h16
M  ZZC   5 c4
M  ZZC   6 c3
M  ZZC   7 h12
M  ZZC   8 c2
M  ZZC   9 h13
M  ZZC  10 c1
M  ZZC  11 h14
M  ZZC  12 c6
M  ZZC  13 h10
M  ZZC  14 c5
M  ZZC  15 h11
M  ZZC  16 s1
M  ZZC  17 c17
M  ZZC  18 n2
M  ZZC  19 c18
M  ZZC  20 n6
M  ZZC  21 h1
M  ZZC  22 h2
M  ZZC  23 n3
M  ZZC  24 c19
M  ZZC  25 n4
M  ZZC  26 n5
M  ZZC  27 h3
M  ZZC  28 h4
M  ZZC  29 c9
M  ZZC  30 c10
M  ZZC  31 h9
M  ZZC  32 n1
M  ZZC  33 h15
M  ZZC  34 c11
M  ZZC  35 c12
M  ZZC  36 c13
M  ZZC  37 h8
M  ZZC  38 c14
M  ZZC  39 h7
M  ZZC  40 c15
M  ZZC  41 h6
M  ZZC  42 c16
M  ZZC  43 h5
M  ZZM   1 7
M  ZZI   1 80
M  ZZM   2 3
M  ZZI   2 122
M  ZZM   3 1
M  ZZI   3 113
M  ZZM   4 5
M  ZZI   4 1
M  ZZM   5 37
M  ZZI   5 124
M  ZZM   6 37
M  ZZI   6 125
M  ZZM   7 5
M  ZZI   7 1
M  ZZM   8 37
M  ZZI   8 125
M  ZZM   9 5
M  ZZI   9 1
M  ZZM  10 37
M  ZZI  10 125
M  ZZM  11 5
M  ZZI  11 1
M  ZZM  12 37
M  ZZI  12 125
M  ZZM  13 5
M  ZZI  13 1
M  ZZM  14 37
M  ZZI  14 125
M  ZZM  15 5
M  ZZI  15 1
M  ZZM  16 15
M  ZZI  16 240
M  ZZM  17 37
M  ZZI  17 124
M  ZZM  18 38
M  ZZI  18 223
M  ZZM  19 37
M  ZZI  19 124
M  ZZM  20 40
M  ZZI  20 224
M  ZZM  21 28
M  ZZI  21 11
M  ZZM  22 28
M  ZZI  22 11
M  ZZM  23 38
M  ZZI  23 223
M  ZZM  24 37
M  ZZI  24 124
M  ZZM  25 38
M  ZZI  25 223
M  ZZM  26 40
M  ZZI  26 224
M  ZZM  27 28
M  ZZI  27 11
M  ZZM  28 28
M  ZZI  28 11
M  ZZM  29 64
M  ZZI  29 105
M  ZZM  30 63
M  ZZI  30 104
M  ZZM  31 5
M  ZZI  31 1
M  ZZM  32 39
M  ZZI  32 215
M  ZZM  33 23
M  ZZI  33 10
M  ZZM  34 63
M  ZZI  34 104
M  ZZM  35 64
M  ZZI  35 105
M  ZZM  36 37
M  ZZI  36 125
M  ZZM  37 5
M  ZZI  37 1
M  ZZM  38 37
M  ZZI  38 125
M  ZZM  39 5
M  ZZI  39 1
M  ZZM  40 37
M  ZZI  40 125
M  ZZM  41 5
M  ZZI  41 1
M  ZZM  42 37
M  ZZI  42 125
M  ZZM  43 5
M  ZZI  43 1
M  END
> <NAME>
Z214761130

> <Score>
-27.404947

> <Natom>
43

> <Nflex>
3

> <Hbond>
-3.524595

> <Hphob>
-5.847218

> <VwInt>
-32.859302

> <Eintl>
7.02562

> <Dsolv>
17.888305

> <SolEl>
4.656041

> <mfScore>
-73.648015

> <RecConf>
1

> <molLogP>
3.355147

$$$$
Z270069656
  MOLSOFT 11211612053D

 43 45  0  0  1  0  0  0  0  0999 V2000
  -34.4752    1.6523   69.3194 H   0  0  0
  -34.7168    2.5438   68.7491 C   0  0  0
  -34.8642    2.5298   67.4265 C   0  0  0
  -34.7371    1.6211   66.8582 H   0  0  0
  -35.1945    3.7304   66.7287 C   0  0  0
  -35.2995    3.6664   65.6509 H   0  0  0
  -35.3229    4.8910   67.3869 C   0  0  0
  -35.1369    4.9181   68.8642 C   0  0  0
  -35.2167    5.9573   69.5016 O   0  0  0
  -34.8599    3.7067   69.4505 N   0  0  0
  -34.7429    3.6924   70.4572 H   0  0  0
  -35.5715    6.1159   66.5860 C   0  0  0
  -36.2672    6.1039   65.5800 O   0  0  0
  -34.8882    7.1992   67.0863 N   0  0  0
  -34.3004    7.0602   67.8995 H   0  0  0
  -34.8613    8.4808   66.4097 C   0  0  2
  -35.8709    8.6552   66.0184 H   0  0  0
  -33.9108    8.3404   65.2496 C   0  0  0
  -32.5280    8.3618   65.3291 N   0  0  0
  -31.6889    8.5605   66.5058 C   0  0  0
  -31.6161    9.6343   66.6996 H   0  0  0
  -30.6933    8.1576   66.2987 H   0  0  0
  -32.1265    8.0339   67.3565 H   0  0  0
  -32.0263    8.1476   64.0781 C   0  0  0
  -30.9672    8.1095   63.8640 H   0  0  0
  -33.1268    7.9902   63.2782 C   0  0  0
  -33.1413    7.7808   62.2184 H   0  0  0
  -34.2810    8.1323   63.9986 N   0  0  0
  -34.5256    9.6322   67.3421 C   0  0  0
  -34.4381    9.4907   68.7270 C   0  0  0
  -34.6962    8.5472   69.1875 H   0  0  0
  -34.0072   10.5442   69.5236 C   0  0  0
  -33.8263   10.4662   70.9072 O   0  0  0
  -33.8669    9.1302   71.4214 C   0  0  0
  -34.8749    8.7106   71.3528 H   0  0  0
  -33.6003    9.1727   72.4806 H   0  0  0
  -33.1342    8.4892   70.9191 H   0  0  0
  -33.7319   11.7695   68.9594 C   0  0  0
  -33.4029   12.5971   69.5795 H   0  0  0
  -33.8830   11.9409   67.6035 C   0  0  0
  -33.6794   12.9092   67.1645 H   0  0  0
  -34.2790   10.8875   66.8067 C   0  0  0
  -34.3766   11.0401   65.7374 H   0  0  0
  2  1  1
  2  3  2
  2 10  1
  3  4  1
  3  5  1
  5  6  1
  5  7  2
  7  8  1
  7 12  1
  8  9  2
  8 10  1
 10 11  1
 12 13  2
 12 14  1
 14 15  1
 16 14  1
 16 17  1
 16 18  1
 16 29  1
 18 19  1
 18 28  2
 19 20  1
 19 24  1
 20 21  1
 20 22  1
 20 23  1
 24 25  1
 24 26  2
 26 27  1
 26 28  1
 29 30  2
 29 42  1
 30 31  1
 30 32  1
 32 33  1
 32 38  2
 33 34  1
 34 35  1
 34 36  1
 34 37  1
 38 39  1
 38 40  1
 40 41  1
 40 42  2
 42 43  1
M  ZZC   1 h2
M  ZZC   2 c17
M  ZZC   3 c16
M  ZZC   4 h3
M  ZZC   5 c15
M  ZZC   6 h4
M  ZZC   7 c14
M  ZZC   8 c18
M  ZZC   9 o3
M  ZZC  10 n4
M  ZZC  11 h1
M  ZZC  12 c13
M  ZZC  13 o2
M  ZZC  14 n3
M  ZZC  15 h5
M  ZZC  16 c5
M  ZZC  17 h18
M  ZZC  18 c4
M  ZZC  19 n1
M  ZZC  20 c1
M  ZZC  21 h15
M  ZZC  22 h16
M  ZZC  23 h17
M  ZZC  24 c2
M  ZZC  25 h14
M  ZZC  26 c3
M  ZZC  27 h13
M  ZZC  28 n2
M  ZZC  29 c6
M  ZZC  30 c11
M  ZZC  31 h9
M  ZZC  32 c10
M  ZZC  33 o1
M  ZZC  34 c12
M  ZZC  35 h6
M  ZZC  36 h7
M  ZZC  37 h8
M  ZZC  38 c9
M  ZZC  39 h10
M  ZZC  40 c8
M  ZZC  41 h11
M  ZZC  42 c7
M  ZZC  43 h12
M  ZZM   1 5
M  ZZI   1 1
M  ZZM   2 2
M  ZZI   2 120
M  ZZM   3 2
M  ZZI   3 120
M  ZZM   4 5
M  ZZI   4 1
M  ZZM   5 2
M  ZZI   5 120
M  ZZM   6 5
M  ZZI   6 1
M  ZZM   7 2
M  ZZI   7 120
M  ZZM   8 3
M  ZZI   8 121
M  ZZM   9 7
M  ZZI   9 81
M  ZZM  10 10
M  ZZI  10 191
M  ZZM  11 28
M  ZZI  11 11
M  ZZM  12 3
M  ZZI  12 121
M  ZZM  13 7
M  ZZI  13 81
M  ZZM  14 10
M  ZZI  14 211
M  ZZM  15 28
M  ZZI  15 11
M  ZZM  16 1
M  ZZI  16 113
M  ZZM  17 5
M  ZZI  17 1
M  ZZM  18 63
M  ZZI  18 104
M  ZZM  19 39
M  ZZI  19 215
M  ZZM  20 1
M  ZZI  20 111
M  ZZM  21 5
M  ZZI  21 1
M  ZZM  22 5
M  ZZI  22 1
M  ZZM  23 5
M  ZZI  23 1
M  ZZM  24 63
M  ZZI  24 104
M  ZZM  25 5
M  ZZI  25 1
M  ZZM  26 64
M  ZZI  26 105
M  ZZM  27 5
M  ZZI  27 1
M  ZZM  28 66
M  ZZI  28 222
M  ZZM  29 37
M  ZZI  29 124
M  ZZM  30 37
M  ZZI  30 125
M  ZZM  31 5
M  ZZI  31 1
M  ZZM  32 37
M  ZZI  32 124
M  ZZM  33 6
M  ZZI  33 59
M  ZZM  34 1
M  ZZI  34 111
M  ZZM  35 5
M  ZZI  35 1
M  ZZM  36 5
M  ZZI  36 1
M  ZZM  37 5
M  ZZI  37 1
M  ZZM  38 37
M  ZZI  38 125
M  ZZM  39 5
M  ZZI  39 1
M  ZZM  40 37
M  ZZI  40 125
M  ZZM  41 5
M  ZZI  41 1
M  ZZM  42 37
M  ZZI  42 125
M  ZZM  43 5
M  ZZI  43 1
M  END
> <NAME>
Z270069656

> <Score>
-27.093483

> <Natom>
43

> <Nflex>
3

> <Hbond>
-1.462176

> <Hphob>
-7.131149

> <VwInt>
-31.048536

> <Eintl>
8.125691

> <Dsolv>
9.025449

> <SolEl>
5.853244

> <mfScore>
-75.721168

> <RecConf>
1

> <molLogP>
0.668575

$$$$
Z218550484
  MOLSOFT 11211612053D

 43 45  0  0  0  0  0  0  0  0999 V2000
  -30.7921    7.7160   70.1810 O   0  0  0
  -30.5332    8.9356   69.9873 C   0  0  0
  -29.7065    9.3733   69.1381 O   0  5  0
  -31.2549    9.9338   70.8312 C   0  0  0
  -32.4523    9.6173   71.4855 C   0  0  0
  -33.0395   10.5903   72.2813 C   0  0  0
  -33.9511   10.3582   72.8184 H   0  0  0
  -32.5004   11.8529   72.4100 C   0  0  0
  -32.9940   12.5964   73.0283 H   0  0  0
  -31.3345   12.1640   71.7523 C   0  0  0
  -30.8994   13.1533   71.8472 H   0  0  0
  -30.7159   11.2090   70.9764 C   0  0  0
  -29.7881   11.4716   70.4772 H   0  0  0
  -33.0647    8.3484   71.3548 N   0  0  0
  -32.6236    7.6609   70.7383 H   0  0  0
  -34.1008    8.0063   72.1899 N   0  0  0
  -34.9767    7.1619   71.7213 C   0  0  0
  -36.0489    6.6642   72.6560 C   0  0  0
  -35.6316    5.8836   73.2971 H   0  0  0
  -36.9008    6.2592   72.1010 H   0  0  0
  -36.4125    7.4934   73.2696 H   0  0  0
  -35.0369    6.6473   70.3261 C   0  0  0
  -35.2498    5.2984   70.0901 C   0  0  0
  -35.2952    4.5836   70.9062 H   0  0  0
  -35.4024    4.8557   68.7927 C   0  0  0
  -35.5582    3.7995   68.5938 H   0  0  0
  -35.3605    5.7504   67.7409 C   0  0  0
  -35.4790    5.3638   66.7347 H   0  0  0
  -35.1466    7.1043   67.9709 C   0  0  0
  -34.9828    7.5443   69.2753 C   0  0  0
  -34.8626    8.5999   69.4925 H   0  0  0
  -35.0851    8.0422   66.9031 N   0  0  0
  -34.6134    9.3938   67.1035 C   0  0  0
  -33.7283    9.4271   67.7481 H   0  0  0
  -35.4239    9.9920   67.5370 H   0  0  0
  -34.2777    9.8519   65.7102 C   0  0  0
  -33.2557    9.5506   65.4523 H   0  0  0
  -34.3490   10.9350   65.5988 H   0  0  0
  -35.2621    9.1032   64.8421 C   0  0  0
  -34.8543    8.8987   63.8472 H   0  0  0
  -36.2126    9.6392   64.7648 H   0  0  0
  -35.5037    7.8310   65.6027 C   0  0  0
  -36.0534    6.8564   65.1086 O   0  0  0
  2  1  2
  2  3  1
  2  4  1
  4  5  1
  4 12  2
  5  6  2
  5 14  1
  6  7  1
  6  8  1
  8  9  1
  8 10  2
 10 11  1
 10 12  1
 12 13  1
 14 15  1
 14 16  1
 16 17  2
 17 18  1
 17 22  1
 18 19  1
 18 20  1
 18 21  1
 22 23  2
 22 30  1
 23 24  1
 23 25  1
 25 26  1
 25 27  2
 27 28  1
 27 29  1
 29 30  2
 29 32  1
 30 31  1
 32 33  1
 32 42  1
 33 34  1
 33 35  1
 33 36  1
 36 37  1
 36 38  1
 36 39  1
 39 40  1
 39 41  1
 39 42  1
 42 43  2
M  ZZC   1 o1
M  ZZC   2 c9
M  ZZC   3 o2
M  ZZC   4 c8
M  ZZC   5 c3
M  ZZC   6 c4
M  ZZC   7 h14
M  ZZC   8 c5
M  ZZC   9 h13
M  ZZC  10 c6
M  ZZC  11 h12
M  ZZC  12 c7
M  ZZC  13 h11
M  ZZC  14 n2
M  ZZC  15 h15
M  ZZC  16 n1
M  ZZC  17 c2
M  ZZC  18 c1
M  ZZC  19 h16
M  ZZC  20 h17
M  ZZC  21 h18
M  ZZC  22 c10
M  ZZC  23 c11
M  ZZC  24 h10
M  ZZC  25 c12
M  ZZC  26 h9
M  ZZC  27 c13
M  ZZC  28 h8
M  ZZC  29 c14
M  ZZC  30 c15
M  ZZC  31 h7
M  ZZC  32 n3
M  ZZC  33 c16
M  ZZC  34 h5
M  ZZC  35 h6
M  ZZC  36 c17
M  ZZC  37 h3
M  ZZC  38 h4
M  ZZC  39 c18
M  ZZC  40 h1
M  ZZC  41 h2
M  ZZC  42 c19
M  ZZC  43 o3
M  ZZM   1 32
M  ZZI   1 71
M  ZZM   2 41
M  ZZI   2 127
M  ZZM   3 32
M  ZZI   3 71
M  ZZM   4 37
M  ZZI   4 124
M  ZZM   5 37
M  ZZI   5 124
M  ZZM   6 37
M  ZZI   6 125
M  ZZM   7 5
M  ZZI   7 1
M  ZZM   8 37
M  ZZI   8 125
M  ZZM   9 5
M  ZZI   9 1
M  ZZM  10 37
M  ZZI  10 125
M  ZZM  11 5
M  ZZI  11 1
M  ZZM  12 37
M  ZZI  12 125
M  ZZM  13 5
M  ZZI  13 1
M  ZZM  14 40
M  ZZI  14 194
M  ZZM  15 28
M  ZZI  15 11
M  ZZM  16 9
M  ZZI  16 220
M  ZZM  17 3
M  ZZI  17 121
M  ZZM  18 1
M  ZZI  18 111
M  ZZM  19 5
M  ZZI  19 1
M  ZZM  20 5
M  ZZI  20 1
M  ZZM  21 5
M  ZZI  21 1
M  ZZM  22 37
M  ZZI  22 124
M  ZZM  23 37
M  ZZI  23 125
M  ZZM  24 5
M  ZZI  24 1
M  ZZM  25 37
M  ZZI  25 125
M  ZZM  26 5
M  ZZI  26 1
M  ZZM  27 37
M  ZZI  27 125
M  ZZM  28 5
M  ZZI  28 1
M  ZZM  29 37
M  ZZI  29 124
M  ZZM  30 37
M  ZZI  30 125
M  ZZM  31 5
M  ZZI  31 1
M  ZZM  32 10
M  ZZI  32 192
M  ZZM  33 1
M  ZZI  33 112
M  ZZM  34 5
M  ZZI  34 1
M  ZZM  35 5
M  ZZI  35 1
M  ZZM  36 1
M  ZZI  36 112
M  ZZM  37 5
M  ZZI  37 1
M  ZZM  38 5
M  ZZI  38 1
M  ZZM  39 1
M  ZZI  39 112
M  ZZM  40 5
M  ZZI  40 1
M  ZZM  41 5
M  ZZI  41 1
M  ZZM  42 3
M  ZZI  42 121
M  ZZM  43 7
M  ZZI  43 81
M  CHG  1   3  -1
M  END
> <NAME>
Z218550484

> <Score>
-27.027247

> <Natom>
43

> <Nflex>
1

> <Hbond>
-4.624093

> <Hphob>
-6.029002

> <VwInt>
-20.853543

> <Eintl>
3.68972

> <Dsolv>
11.894464

> <SolEl>
0.066417

> <mfScore>
-85.540457

> <RecConf>
1

> <molLogP>
3.057363

$$$$
Z89427522
  MOLSOFT 11211612053D

 43 44  0  0  1  0  0  0  0  0999 V2000
  -34.3397    1.1253   68.6528 Br  0  0  0
  -34.8116    2.9243   68.2740 C   0  0  0
  -34.8935    3.8337   69.3059 C   0  0  0
  -34.6956    3.5033   70.3213 H   0  0  0
  -35.2291    5.1575   69.0570 C   0  0  0
  -35.2989    6.1118   70.2162 C   0  0  0
  -36.2800    6.5930   70.2552 H   0  0  0
  -34.5179    6.8746   70.1428 H   0  0  0
  -35.1718    5.5862   71.1672 H   0  0  0
  -35.4679    5.5646   67.7404 C   0  0  0
  -35.3941    4.6280   66.7145 C   0  0  0
  -35.5671    4.9042   65.6820 H   0  0  0
  -35.0650    3.3139   66.9775 C   0  0  0
  -35.0024    2.5998   66.1625 H   0  0  0
  -35.7464    6.9338   67.4848 N   0  0  0
  -35.6885    7.5607   68.2769 H   0  0  0
  -36.0968    7.4806   66.2568 C   0  0  0
  -36.3275    6.8478   65.2354 O   0  0  0
  -36.1159    9.0028   66.2623 C   0  0  0
  -36.3311    9.3727   67.2664 H   0  0  0
  -36.9346    9.3439   65.6196 H   0  0  0
  -34.8582    9.5655   65.7445 N   0  0  0
  -34.5335    9.3032   64.3489 C   0  0  0
  -33.5691    9.7514   64.0965 H   0  0  0
  -35.2879    9.7254   63.6813 H   0  0  0
  -34.4918    8.2249   64.1963 H   0  0  0
  -34.0066   10.4147   66.4490 C   0  0  0
  -33.0976   11.0137   65.8938 O   0  0  0
  -34.2674   10.6025   67.9299 C   0  0  0
  -34.5803    9.6575   68.3848 H   0  0  0
  -35.0874   11.3192   68.0362 H   0  0  0
  -33.0061   11.1246   68.6269 C   0  0  2
  -32.5372   11.9269   68.0464 H   0  0  0
  -31.9953   10.0044   68.8970 C   0  0  0
  -30.9784   10.3778   68.7407 H   0  0  0
  -32.1087    9.1420   68.2314 H   0  0  0
  -32.1613    9.6148   70.3588 C   0  0  0
  -32.7846    8.7221   70.4734 H   0  0  0
  -31.1912    9.4288   70.8308 H   0  0  0
  -32.8410   10.7967   70.9403 C   0  0  0
  -32.9596   10.9617   72.0053 H   0  0  0
  -33.2990   11.6183   69.9989 C   0  0  0
  -33.8235   12.5449   70.2015 H   0  0  0
  2  1  1
  2  3  1
  2 13  2
  3  4  1
  3  5  2
  5  6  1
  5 10  1
  6  7  1
  6  8  1
  6  9  1
 10 11  2
 10 15  1
 11 12  1
 11 13  1
 13 14  1
 15 16  1
 15 17  1
 17 18  2
 17 19  1
 19 20  1
 19 21  1
 19 22  1
 22 23  1
 22 27  1
 23 24  1
 23 25  1
 23 26  1
 27 28  2
 27 29  1
 29 30  1
 29 31  1
 32 29  1
 32 33  1
 32 34  1
 32 42  1
 34 35  1
 34 36  1
 34 37  1
 37 38  1
 37 39  1
 37 40  1
 40 41  1
 40 42  2
 42 43  1
M  ZZC   1 &Br1
M  ZZC   2 c4
M  ZZC   3 c3
M  ZZC   4 h17
M  ZZC   5 c2
M  ZZC   6 c1
M  ZZC   7 h18
M  ZZC   8 h19
M  ZZC   9 h20
M  ZZC  10 c7
M  ZZC  11 c6
M  ZZC  12 h15
M  ZZC  13 c5
M  ZZC  14 h16
M  ZZC  15 n1
M  ZZC  16 h14
M  ZZC  17 c8
M  ZZC  18 o1
M  ZZC  19 c9
M  ZZC  20 h12
M  ZZC  21 h13
M  ZZC  22 n2
M  ZZC  23 c10
M  ZZC  24 h10
M  ZZC  25 h11
M  ZZC  26 h9
M  ZZC  27 c11
M  ZZC  28 o2
M  ZZC  29 c12
M  ZZC  30 h7
M  ZZC  31 h8
M  ZZC  32 c13
M  ZZC  33 h21
M  ZZC  34 c14
M  ZZC  35 h5
M  ZZC  36 h6
M  ZZC  37 c15
M  ZZC  38 h3
M  ZZC  39 h4
M  ZZC  40 c16
M  ZZC  41 h2
M  ZZC  42 c17
M  ZZC  43 h1
M  ZZM   1 13
M  ZZI   1 95
M  ZZM   2 37
M  ZZI   2 124
M  ZZM   3 37
M  ZZI   3 125
M  ZZM   4 5
M  ZZI   4 1
M  ZZM   5 37
M  ZZI   5 124
M  ZZM   6 1
M  ZZI   6 111
M  ZZM   7 5
M  ZZI   7 1
M  ZZM   8 5
M  ZZI   8 1
M  ZZM   9 5
M  ZZI   9 1
M  ZZM  10 37
M  ZZI  10 124
M  ZZM  11 37
M  ZZI  11 125
M  ZZM  12 5
M  ZZI  12 1
M  ZZM  13 37
M  ZZI  13 125
M  ZZM  14 5
M  ZZI  14 1
M  ZZM  15 10
M  ZZI  15 191
M  ZZM  16 28
M  ZZI  16 11
M  ZZM  17 3
M  ZZI  17 121
M  ZZM  18 7
M  ZZI  18 81
M  ZZM  19 1
M  ZZI  19 112
M  ZZM  20 5
M  ZZI  20 1
M  ZZM  21 5
M  ZZI  21 1
M  ZZM  22 10
M  ZZI  22 192
M  ZZM  23 1
M  ZZI  23 111
M  ZZM  24 5
M  ZZI  24 1
M  ZZM  25 5
M  ZZI  25 1
M  ZZM  26 5
M  ZZI  26 1
M  ZZM  27 3
M  ZZI  27 121
M  ZZM  28 7
M  ZZI  28 81
M  ZZM  29 1
M  ZZI  29 112
M  ZZM  30 5
M  ZZI  30 1
M  ZZM  31 5
M  ZZI  31 1
M  ZZM  32 1
M  ZZI  32 113
M  ZZM  33 5
M  ZZI  33 1
M  ZZM  34 1
M  ZZI  34 112
M  ZZM  35 5
M  ZZI  35 1
M  ZZM  36 5
M  ZZI  36 1
M  ZZM  37 1
M  ZZI  37 112
M  ZZM  38 5
M  ZZI  38 1
M  ZZM  39 5
M  ZZI  39 1
M  ZZM  40 2
M  ZZI  40 120
M  ZZM  41 5
M  ZZI  41 1
M  ZZM  42 2
M  ZZI  42 120
M  ZZM  43 5
M  ZZI  43 1
M  END
> <NAME>
Z89427522

> <Score>
-26.855528

> <Natom>
43

> <Nflex>
5

> <Hbond>
-3.057858

> <Hphob>
-7.63339

> <VwInt>
-29.211111

> <Eintl>
6.016869

> <Dsolv>
10.293283

> <SolEl>
6.797535

> <mfScore>
-76.422663

> <RecConf>
1

> <molLogP>
3.378823

$$$$
Z635218930
  MOLSOFT 11211612053D

 43 46  0  0  0  0  0  0  0  0999 V2000
  -35.4660    4.8391   71.2992 F   0  0  0
  -35.7803    5.5284   70.1679 C   0  0  0
  -35.1315    6.7203   70.2781 F   0  0  0
  -37.1078    5.8099   70.2680 F   0  0  0
  -35.4418    4.7839   68.9012 C   0  0  0
  -35.4946    5.3904   67.6343 C   0  0  0
  -35.1650    4.6340   66.5137 C   0  0  0
  -35.1780    5.0850   65.5267 H   0  0  0
  -34.7851    3.3134   66.6256 C   0  0  0
  -34.5162    2.7368   65.7475 H   0  0  0
  -34.7294    2.7367   67.8701 C   0  0  0
  -34.3266    1.4637   68.0002 F   0  0  0
  -35.0642    3.4496   68.9945 C   0  0  0
  -35.0086    2.9464   69.9550 H   0  0  0
  -35.7797    6.8652   67.4770 C   0  0  0
  -36.4638    7.2023   68.2592 H   0  0  0
  -34.8328    7.3871   67.6428 H   0  0  0
  -36.3745    7.2259   66.1816 N   0  0  0
  -37.3881    7.2692   66.3012 H   0  0  0
  -35.9158    8.5506   65.7502 C   0  0  0
  -35.9521    9.2538   66.5853 H   0  0  0
  -36.6173    8.9400   65.0086 H   0  0  0
  -34.5618    8.4388   65.1287 C   0  0  0
  -33.2955    8.9241   65.6012 C   0  0  0
  -32.2980    8.5532   64.7817 N   0  0  0
  -32.9072    7.8697   63.7968 N   0  0  0
  -32.3373    7.4606   63.0638 H   0  0  0
  -34.2581    7.7984   63.9463 C   0  0  0
  -34.8701    7.2797   63.2236 H   0  0  0
  -33.0001    9.6885   66.8066 C   0  0  0
  -33.7933   10.7787   67.1805 C   0  0  0
  -34.6173   11.0943   66.5521 H   0  0  0
  -33.5515   11.4885   68.3457 C   0  0  0
  -34.1693   12.3317   68.6386 H   0  0  0
  -32.4894   11.0805   69.1149 C   0  0  0
  -31.6945   10.0527   68.7484 C   0  0  0
  -31.9109    9.3297   67.5976 C   0  0  0
  -31.2561    8.5051   67.3345 H   0  0  0
  -30.6735    9.8326   69.6387 O   0  0  0
  -30.9525   10.8497   70.6205 C   0  0  0
  -30.0797   11.5064   70.7095 H   0  0  0
  -31.1126   10.3680   71.5911 H   0  0  0
  -32.1071   11.6500   70.3022 O   0  0  0
  2  1  1
  2  3  1
  2  4  1
  2  5  1
  5  6  1
  5 13  2
  6  7  2
  6 15  1
  7  8  1
  7  9  1
  9 10  1
  9 11  2
 11 12  1
 11 13  1
 13 14  1
 15 16  1
 15 17  1
 15 18  1
 18 19  1
 18 20  1
 20 21  1
 20 22  1
 20 23  1
 23 24  1
 23 28  2
 24 25  2
 24 30  1
 25 26  1
 26 27  1
 26 28  1
 28 29  1
 30 31  2
 30 37  1
 31 32  1
 31 33  1
 33 34  1
 33 35  2
 35 36  1
 35 43  1
 36 37  2
 36 39  1
 37 38  1
 39 40  1
 40 41  1
 40 42  1
 40 43  1
M  ZZC   1 f1
M  ZZC   2 c18
M  ZZC   3 f2
M  ZZC   4 f3
M  ZZC   5 c17
M  ZZC   6 c12
M  ZZC   7 c13
M  ZZC   8 h5
M  ZZC   9 c14
M  ZZC  10 h4
M  ZZC  11 c15
M  ZZC  12 f4
M  ZZC  13 c16
M  ZZC  14 h3
M  ZZC  15 c11
M  ZZC  16 h6
M  ZZC  17 h7
M  ZZC  18 n3
M  ZZC  19 h8
M  ZZC  20 c10
M  ZZC  21 h10
M  ZZC  22 h9
M  ZZC  23 c8
M  ZZC  24 c7
M  ZZC  25 n2
M  ZZC  26 n1
M  ZZC  27 h15
M  ZZC  28 c9
M  ZZC  29 h11
M  ZZC  30 c6
M  ZZC  31 c1
M  ZZC  32 h14
M  ZZC  33 c2
M  ZZC  34 h13
M  ZZC  35 c3
M  ZZC  36 c4
M  ZZC  37 c5
M  ZZC  38 h12
M  ZZC  39 o1
M  ZZC  40 c19
M  ZZC  41 h1
M  ZZC  42 h2
M  ZZC  43 o2
M  ZZM   1 11
M  ZZI   1 90
M  ZZM   2 1
M  ZZI   2 110
M  ZZM   3 11
M  ZZI   3 90
M  ZZM   4 11
M  ZZI   4 90
M  ZZM   5 37
M  ZZI   5 124
M  ZZM   6 37
M  ZZI   6 124
M  ZZM   7 37
M  ZZI   7 125
M  ZZM   8 5
M  ZZI   8 1
M  ZZM   9 37
M  ZZI   9 125
M  ZZM  10 5
M  ZZI  10 1
M  ZZM  11 37
M  ZZI  11 124
M  ZZM  12 11
M  ZZI  12 90
M  ZZM  13 37
M  ZZI  13 125
M  ZZM  14 5
M  ZZI  14 1
M  ZZM  15 1
M  ZZI  15 112
M  ZZM  16 5
M  ZZI  16 1
M  ZZM  17 5
M  ZZI  17 1
M  ZZM  18 8
M  ZZI  18 214
M  ZZM  19 23
M  ZZI  19 10
M  ZZM  20 1
M  ZZI  20 112
M  ZZM  21 5
M  ZZI  21 1
M  ZZM  22 5
M  ZZI  22 1
M  ZZM  23 64
M  ZZI  23 105
M  ZZM  24 64
M  ZZI  24 105
M  ZZM  25 65
M  ZZI  25 207
M  ZZM  26 39
M  ZZI  26 215
M  ZZM  27 23
M  ZZI  27 10
M  ZZM  28 63
M  ZZI  28 104
M  ZZM  29 5
M  ZZI  29 1
M  ZZM  30 37
M  ZZI  30 124
M  ZZM  31 37
M  ZZI  31 125
M  ZZM  32 5
M  ZZI  32 1
M  ZZM  33 37
M  ZZI  33 125
M  ZZM  34 5
M  ZZI  34 1
M  ZZM  35 37
M  ZZI  35 124
M  ZZM  36 37
M  ZZI  36 124
M  ZZM  37 37
M  ZZI  37 125
M  ZZM  38 5
M  ZZI  38 1
M  ZZM  39 6
M  ZZI  39 59
M  ZZM  40 1
M  ZZI  40 112
M  ZZM  41 5
M  ZZI  41 1
M  ZZM  42 5
M  ZZI  42 1
M  ZZM  43 6
M  ZZI  43 59
M  END
> <NAME>
Z635218930

> <Score>
-26.760497

> <Natom>
43

> <Nflex>
5

> <Hbond>
-4.206616

> <Hphob>
-6.321777

> <VwInt>
-32.654612

> <Eintl>
8.711912

> <Dsolv>
14.400973

> <SolEl>
10.563202

> <mfScore>
-116.282566

> <RecConf>
1

> <molLogP>
4.272173

$$$$
Z24089233
  MOLSOFT 11211612053D

 43 45  0  0  0  0  0  0  0  0999 V2000
  -36.2569    5.8085   65.4227 O   0  0  0
  -36.2996    6.0999   66.6107 C   0  0  0
  -36.0964    5.1759   67.7617 C   0  0  0
  -35.4139    3.9582   67.6439 C   0  0  0
  -34.9093    3.4373   66.3317 C   0  0  0
  -35.7435    3.2061   65.6664 H   0  0  0
  -34.3279    2.5201   66.4635 H   0  0  0
  -34.2549    4.1726   65.8627 H   0  0  0
  -35.1841    3.2048   68.7888 C   0  0  0
  -34.6595    2.2559   68.7206 H   0  0  0
  -35.5843    3.6505   70.0316 C   0  0  0
  -35.3598    3.0540   70.9113 H   0  0  0
  -36.2621    4.8525   70.1254 C   0  0  0
  -36.5562    5.5966   68.9999 C   0  0  0
  -37.1123    6.5211   69.1006 H   0  0  0
  -36.7226    5.5035   71.7423 S   0  0  0
  -38.1452    5.7700   71.7129 O   0  0  0
  -36.1245    4.6488   72.7472 O   0  0  0
  -35.9071    6.9897   71.7640 N   0  0  0
  -36.5447    7.7845   71.8863 H   0  0  0
  -35.2932    7.1548   70.9544 H   0  0  0
  -36.4543    7.3519   67.1355 O   0  0  0
  -36.2470    8.4397   66.2269 C   0  0  0
  -36.5865    8.1682   65.2251 H   0  0  0
  -36.8610    9.2817   66.5584 H   0  0  0
  -34.7631    8.8120   66.2058 C   0  0  0
  -34.5532    9.4209   65.3208 H   0  0  0
  -34.1457    7.9086   66.1581 H   0  0  0
  -34.3292    9.5576   67.3842 N   0  0  0
  -34.3713    9.1022   68.6901 C   0  0  0
  -34.7698    8.0507   69.1698 O   0  0  0
  -33.7682   10.1439   69.5081 C   0  0  0
  -33.5942   10.1771   70.8752 C   0  0  0
  -33.9496    9.3801   71.5211 H   0  0  0
  -32.9185   11.2717   71.3844 C   0  0  0
  -32.7413   11.3427   72.4533 H   0  0  0
  -32.4433   12.2700   70.5431 C   0  0  0
  -31.8773   13.0880   70.9720 H   0  0  0
  -32.6530   12.2243   69.1726 C   0  0  0
  -32.2728   12.9919   68.5090 H   0  0  0
  -33.3276   11.1292   68.6858 C   0  0  0
  -33.6479   10.7550   67.3087 C   0  0  0
  -33.2966   11.4010   66.3308 O   0  0  0
  2  1  2
  2  3  1
  2 22  1
  3  4  1
  3 14  2
  4  5  1
  4  9  2
  5  6  1
  5  7  1
  5  8  1
  9 10  1
  9 11  1
 11 12  1
 11 13  2
 13 14  1
 13 16  1
 14 15  1
 16 17  2
 16 18  2
 16 19  1
 19 20  1
 19 21  1
 22 23  1
 23 24  1
 23 25  1
 23 26  1
 26 27  1
 26 28  1
 26 29  1
 29 30  1
 29 42  1
 30 31  2
 30 32  1
 32 33  1
 32 41  2
 33 34  1
 33 35  2
 35 36  1
 35 37  1
 37 38  1
 37 39  2
 39 40  1
 39 41  1
 41 42  1
 42 43  2
M  ZZC   1 o1
M  ZZC   2 c8
M  ZZC   3 c7
M  ZZC   4 c2
M  ZZC   5 c1
M  ZZC   6 h14
M  ZZC   7 h15
M  ZZC   8 h16
M  ZZC   9 c3
M  ZZC  10 h13
M  ZZC  11 c4
M  ZZC  12 h12
M  ZZC  13 c5
M  ZZC  14 c6
M  ZZC  15 h11
M  ZZC  16 s1
M  ZZC  17 o5
M  ZZC  18 o6
M  ZZC  19 n2
M  ZZC  20 h1
M  ZZC  21 h2
M  ZZC  22 o2
M  ZZC  23 c9
M  ZZC  24 h10
M  ZZC  25 h9
M  ZZC  26 c10
M  ZZC  27 h7
M  ZZC  28 h8
M  ZZC  29 n1
M  ZZC  30 c11
M  ZZC  31 o3
M  ZZC  32 c12
M  ZZC  33 c13
M  ZZC  34 h6
M  ZZC  35 c14
M  ZZC  36 h5
M  ZZC  37 c15
M  ZZC  38 h4
M  ZZC  39 c16
M  ZZC  40 h3
M  ZZC  41 c17
M  ZZC  42 c18
M  ZZC  43 o4
M  ZZM   1 7
M  ZZI   1 82
M  ZZM   2 3
M  ZZI   2 123
M  ZZM   3 37
M  ZZI   3 124
M  ZZM   4 37
M  ZZI   4 124
M  ZZM   5 1
M  ZZI   5 111
M  ZZM   6 5
M  ZZI   6 1
M  ZZM   7 5
M  ZZI   7 1
M  ZZM   8 5
M  ZZI   8 1
M  ZZM   9 37
M  ZZI   9 125
M  ZZM  10 5
M  ZZI  10 1
M  ZZM  11 37
M  ZZI  11 125
M  ZZM  12 5
M  ZZI  12 1
M  ZZM  13 37
M  ZZI  13 124
M  ZZM  14 37
M  ZZI  14 125
M  ZZM  15 5
M  ZZI  15 1
M  ZZM  16 18
M  ZZI  16 250
M  ZZM  17 32
M  ZZI  17 73
M  ZZM  18 32
M  ZZI  18 73
M  ZZM  19 43
M  ZZI  19 226
M  ZZM  20 28
M  ZZI  20 11
M  ZZM  21 28
M  ZZI  21 11
M  ZZM  22 6
M  ZZI  22 65
M  ZZM  23 1
M  ZZI  23 112
M  ZZM  24 5
M  ZZI  24 1
M  ZZM  25 5
M  ZZI  25 1
M  ZZM  26 1
M  ZZI  26 112
M  ZZM  27 5
M  ZZI  27 1
M  ZZM  28 5
M  ZZI  28 1
M  ZZM  29 10
M  ZZI  29 192
M  ZZM  30 3
M  ZZI  30 121
M  ZZM  31 7
M  ZZI  31 81
M  ZZM  32 37
M  ZZI  32 124
M  ZZM  33 37
M  ZZI  33 125
M  ZZM  34 5
M  ZZI  34 1
M  ZZM  35 37
M  ZZI  35 125
M  ZZM  36 5
M  ZZI  36 1
M  ZZM  37 37
M  ZZI  37 125
M  ZZM  38 5
M  ZZI  38 1
M  ZZM  39 37
M  ZZI  39 125
M  ZZM  40 5
M  ZZI  40 1
M  ZZM  41 37
M  ZZI  41 124
M  ZZM  42 3
M  ZZI  42 121
M  ZZM  43 7
M  ZZI  43 81
M  END
> <NAME>
Z24089233

> <Score>
-26.709088

> <Natom>
43

> <Nflex>
5

> <Hbond>
-3.632187

> <Hphob>
-5.514874

> <VwInt>
-28.503329

> <Eintl>
9.392619

> <Dsolv>
11.506249

> <SolEl>
4.619624

> <mfScore>
-73.065367

> <RecConf>
1

> <molLogP>
2.247458

$$$$
Z1457884566
  MOLSOFT 11211612053D

 43 44  0  0  1  0  0  0  0  0999 V2000
  -35.2411    5.7127   71.0371 F   0  0  0
  -35.6545    5.8395   69.7459 C   0  0  0
  -35.1742    7.0441   69.3298 F   0  0  0
  -37.0068    5.9690   69.8070 F   0  0  0
  -35.2330    4.6948   68.8650 C   0  0  0
  -34.7045    3.5570   69.4662 C   0  0  0
  -34.5949    3.5031   70.5458 H   0  0  0
  -34.2966    2.4756   68.7194 C   0  0  0
  -33.8718    1.6018   69.2030 H   0  0  0
  -34.4302    2.5089   67.3539 C   0  0  0
  -34.1011    1.6684   66.7563 H   0  0  0
  -34.9819    3.6104   66.7422 C   0  0  0
  -35.0872    3.5951   65.6628 H   0  0  0
  -35.3823    4.7236   67.4701 C   0  0  0
  -35.9357    5.9162   66.7175 C   0  0  0
  -36.4405    6.5990   67.3978 H   0  0  0
  -36.7123    5.5750   66.0267 H   0  0  0
  -34.8585    6.6095   65.8927 C   0  0  0
  -34.2723    6.0059   65.0070 O   0  0  0
  -34.5303    7.9330   66.1686 N   0  0  0
  -35.4740    8.9126   66.7131 C   0  0  0
  -36.2713    8.4249   67.2725 H   0  0  0
  -35.9602    9.3919   65.8561 H   0  0  0
  -34.7953    9.9638   67.5837 C   0  0  0
  -34.4514    9.4992   68.5154 H   0  0  0
  -35.5312   10.7212   67.8665 H   0  0  0
  -33.6661   10.5878   66.8673 N   0  0  0
  -33.0653   11.6286   67.7161 C   0  0  0
  -33.8004   12.3976   67.9643 H   0  0  0
  -32.2104   12.1148   67.2348 H   0  0  0
  -32.7259   11.2019   68.6646 H   0  0  0
  -32.6784    9.5421   66.5443 C   0  0  0
  -31.7997    9.9882   66.0680 H   0  0  0
  -32.3211    9.0690   67.4673 H   0  0  0
  -33.2668    8.4643   65.6212 C   0  0  1
  -32.5496    7.6358   65.6028 H   0  0  0
  -33.4064    8.9791   64.1719 C   0  0  0
  -34.3168    9.5686   64.0246 H   0  0  0
  -32.5403    9.5725   63.8643 H   0  0  0
  -33.4737    7.8347   63.1996 N   0  3  0
  -32.5871    7.3174   63.1331 H   0  0  0
  -33.7052    8.1616   62.2512 H   0  0  0
  -34.2005    7.1473   63.4447 H   0  0  0
  2  1  1
  2  3  1
  2  4  1
  2  5  1
  5  6  2
  5 14  1
  6  7  1
  6  8  1
  8  9  1
  8 10  2
 10 11  1
 10 12  1
 12 13  1
 12 14  2
 14 15  1
 15 16  1
 15 17  1
 15 18  1
 18 19  2
 18 20  1
 20 21  1
 35 20  1
 21 22  1
 21 23  1
 21 24  1
 24 25  1
 24 26  1
 24 27  1
 27 28  1
 27 32  1
 28 29  1
 28 30  1
 28 31  1
 32 33  1
 32 34  1
 35 32  1
 35 36  1
 35 37  1
 37 38  1
 37 39  1
 37 40  1
 40 41  1
 40 42  1
 40 43  1
M  ZZC   1 f1
M  ZZC   2 c15
M  ZZC   3 f2
M  ZZC   4 f3
M  ZZC   5 c14
M  ZZC   6 c13
M  ZZC   7 h2
M  ZZC   8 c12
M  ZZC   9 h3
M  ZZC  10 c11
M  ZZC  11 h4
M  ZZC  12 c10
M  ZZC  13 h5
M  ZZC  14 c9
M  ZZC  15 c8
M  ZZC  16 h6
M  ZZC  17 h7
M  ZZC  18 c7
M  ZZC  19 o1
M  ZZC  20 n2
M  ZZC  21 c3
M  ZZC  22 h14
M  ZZC  23 h15
M  ZZC  24 c2
M  ZZC  25 h16
M  ZZC  26 h17
M  ZZC  27 n1
M  ZZC  28 c1
M  ZZC  29 h18
M  ZZC  30 h19
M  ZZC  31 h20
M  ZZC  32 c5
M  ZZC  33 h12
M  ZZC  34 h13
M  ZZC  35 c4
M  ZZC  36 h21
M  ZZC  37 c6
M  ZZC  38 h10
M  ZZC  39 h11
M  ZZC  40 n3
M  ZZC  41 h1
M  ZZC  42 h8
M  ZZC  43 h9
M  ZZM   1 11
M  ZZI   1 90
M  ZZM   2 1
M  ZZI   2 110
M  ZZM   3 11
M  ZZI   3 90
M  ZZM   4 11
M  ZZI   4 90
M  ZZM   5 37
M  ZZI   5 124
M  ZZM   6 37
M  ZZI   6 125
M  ZZM   7 5
M  ZZI   7 1
M  ZZM   8 37
M  ZZI   8 125
M  ZZM   9 5
M  ZZI   9 1
M  ZZM  10 37
M  ZZI  10 125
M  ZZM  11 5
M  ZZI  11 1
M  ZZM  12 37
M  ZZI  12 125
M  ZZM  13 5
M  ZZI  13 1
M  ZZM  14 37
M  ZZI  14 124
M  ZZM  15 1
M  ZZI  15 112
M  ZZM  16 5
M  ZZI  16 1
M  ZZM  17 5
M  ZZI  17 1
M  ZZM  18 3
M  ZZI  18 121
M  ZZM  19 7
M  ZZI  19 81
M  ZZM  20 10
M  ZZI  20 192
M  ZZM  21 1
M  ZZI  21 112
M  ZZM  22 5
M  ZZI  22 1
M  ZZM  23 5
M  ZZI  23 1
M  ZZM  24 1
M  ZZI  24 112
M  ZZM  25 5
M  ZZI  25 1
M  ZZM  26 5
M  ZZI  26 1
M  ZZM  27 8
M  ZZI  27 216
M  ZZM  28 1
M  ZZI  28 111
M  ZZM  29 5
M  ZZI  29 1
M  ZZM  30 5
M  ZZI  30 1
M  ZZM  31 5
M  ZZI  31 1
M  ZZM  32 1
M  ZZI  32 112
M  ZZM  33 5
M  ZZI  33 1
M  ZZM  34 5
M  ZZI  34 1
M  ZZM  35 1
M  ZZI  35 113
M  ZZM  36 5
M  ZZI  36 1
M  ZZM  37 1
M  ZZI  37 112
M  ZZM  38 5
M  ZZI  38 1
M  ZZM  39 5
M  ZZI  39 1
M  ZZM  40 34
M  ZZI  40 231
M  ZZM  41 36
M  ZZI  41 17
M  ZZM  42 36
M  ZZI  42 17
M  ZZM  43 36
M  ZZI  43 17
M  CHG  1  40   1
M  END
> <NAME>
Z1457884566

> <Score>
-26.623853

> <Natom>
43

> <Nflex>
5

> <Hbond>
-5.137594

> <Hphob>
-6.624512

> <VwInt>
-27.47393

> <Eintl>
8.408937

> <Dsolv>
7.020246

> <SolEl>
15.183983

> <mfScore>
-82.98846

> <RecConf>
1

> <molLogP>
2.254273

$$$$
Z343521112
  MOLSOFT 11211612053D

 43 45  0  0  0  0  0  0  0  0999 V2000
  -34.4533    1.3208   68.6210 F   0  0  0
  -34.8650    2.5583   68.3035 C   0  0  0
  -35.2695    3.4090   69.3077 C   0  0  0
  -35.2458    3.0447   70.3271 H   0  0  0
  -35.6806    4.6947   68.9742 C   0  0  0
  -36.1255    5.6441   69.9032 O   0  0  0
  -36.3054    5.1290   71.2255 C   0  0  0
  -36.7400    5.9253   71.8357 H   0  0  0
  -35.3440    4.8545   71.6721 H   0  0  0
  -37.0071    4.2878   71.2316 H   0  0  0
  -35.6698    5.1097   67.6481 C   0  0  0
  -35.2787    4.2262   66.6505 C   0  0  0
  -35.2543    4.5217   65.6090 H   0  0  0
  -34.8726    2.9496   66.9831 C   0  0  0
  -34.5523    2.2558   66.2135 H   0  0  0
  -36.0186    6.4571   67.3923 N   0  0  0
  -36.1100    7.0342   68.2232 H   0  0  0
  -36.1895    7.0370   66.1494 C   0  0  0
  -36.2535    6.4383   65.0872 O   0  0  0
  -36.2771    8.5465   66.1983 C   0  0  0
  -37.2304    8.8353   65.7443 H   0  0  0
  -36.3019    8.9039   67.2314 H   0  0  0
  -35.1200    9.1784   65.4216 C   0  0  0
  -35.3017   10.2534   65.3333 H   0  0  0
  -35.1013    8.7798   64.4023 H   0  0  0
  -33.7482    8.9443   66.0566 C   0  0  0
  -32.9779    9.3384   65.3853 H   0  0  0
  -33.5567    7.8762   66.2004 H   0  0  0
  -33.6098    9.6274   67.3317 N   0  0  0
  -33.7572    9.0299   68.5631 C   0  0  0
  -34.0269    7.8737   68.8490 O   0  0  0
  -33.5280   10.0737   69.5525 C   0  0  0
  -33.5624    9.9853   70.9267 C   0  0  0
  -33.7891    9.0536   71.4367 H   0  0  0
  -33.2886   11.1481   71.6257 C   0  0  0
  -33.2967   11.1351   72.7115 H   0  0  0
  -33.0062   12.3346   70.9587 C   0  0  0
  -32.8064   13.2246   71.5452 H   0  0  0
  -32.9830   12.3998   69.5723 C   0  0  0
  -32.7586   13.3200   69.0440 H   0  0  0
  -33.2496   11.2307   68.8960 C   0  0  0
  -33.2868   10.9586   67.4591 C   0  0  0
  -33.0599   11.7825   66.5856 O   0  0  0
  2  1  1
  2  3  1
  2 14  2
  3  4  1
  3  5  2
  5  6  1
  5 11  1
  6  7  1
  7  8  1
  7  9  1
  7 10  1
 11 12  2
 11 16  1
 12 13  1
 12 14  1
 14 15  1
 16 17  1
 16 18  1
 18 19  2
 18 20  1
 20 21  1
 20 22  1
 20 23  1
 23 24  1
 23 25  1
 23 26  1
 26 27  1
 26 28  1
 26 29  1
 29 30  1
 29 42  1
 30 31  2
 30 32  1
 32 33  2
 32 41  1
 33 34  1
 33 35  1
 35 36  1
 35 37  2
 37 38  1
 37 39  1
 39 40  1
 39 41  2
 41 42  1
 42 43  2
M  ZZC   1 f1
M  ZZC   2 c4
M  ZZC   3 c3
M  ZZC   4 h14
M  ZZC   5 c2
M  ZZC   6 o1
M  ZZC   7 c1
M  ZZC   8 h15
M  ZZC   9 h16
M  ZZC  10 h17
M  ZZC  11 c7
M  ZZC  12 c6
M  ZZC  13 h12
M  ZZC  14 c5
M  ZZC  15 h13
M  ZZC  16 n1
M  ZZC  17 h11
M  ZZC  18 c8
M  ZZC  19 o2
M  ZZC  20 c9
M  ZZC  21 h10
M  ZZC  22 h9
M  ZZC  23 c10
M  ZZC  24 h7
M  ZZC  25 h8
M  ZZC  26 c11
M  ZZC  27 h5
M  ZZC  28 h6
M  ZZC  29 n2
M  ZZC  30 c12
M  ZZC  31 o3
M  ZZC  32 c13
M  ZZC  33 c14
M  ZZC  34 h4
M  ZZC  35 c15
M  ZZC  36 h3
M  ZZC  37 c16
M  ZZC  38 h2
M  ZZC  39 c17
M  ZZC  40 h1
M  ZZC  41 c18
M  ZZC  42 c19
M  ZZC  43 o4
M  ZZM   1 11
M  ZZI   1 90
M  ZZM   2 37
M  ZZI   2 124
M  ZZM   3 37
M  ZZI   3 125
M  ZZM   4 5
M  ZZI   4 1
M  ZZM   5 37
M  ZZI   5 124
M  ZZM   6 6
M  ZZI   6 59
M  ZZM   7 1
M  ZZI   7 111
M  ZZM   8 5
M  ZZI   8 1
M  ZZM   9 5
M  ZZI   9 1
M  ZZM  10 5
M  ZZI  10 1
M  ZZM  11 37
M  ZZI  11 124
M  ZZM  12 37
M  ZZI  12 125
M  ZZM  13 5
M  ZZI  13 1
M  ZZM  14 37
M  ZZI  14 125
M  ZZM  15 5
M  ZZI  15 1
M  ZZM  16 10
M  ZZI  16 191
M  ZZM  17 28
M  ZZI  17 11
M  ZZM  18 3
M  ZZI  18 121
M  ZZM  19 7
M  ZZI  19 81
M  ZZM  20 1
M  ZZI  20 112
M  ZZM  21 5
M  ZZI  21 1
M  ZZM  22 5
M  ZZI  22 1
M  ZZM  23 1
M  ZZI  23 112
M  ZZM  24 5
M  ZZI  24 1
M  ZZM  25 5
M  ZZI  25 1
M  ZZM  26 1
M  ZZI  26 112
M  ZZM  27 5
M  ZZI  27 1
M  ZZM  28 5
M  ZZI  28 1
M  ZZM  29 10
M  ZZI  29 192
M  ZZM  30 3
M  ZZI  30 121
M  ZZM  31 7
M  ZZI  31 81
M  ZZM  32 37
M  ZZI  32 124
M  ZZM  33 37
M  ZZI  33 125
M  ZZM  34 5
M  ZZI  34 1
M  ZZM  35 37
M  ZZI  35 125
M  ZZM  36 5
M  ZZI  36 1
M  ZZM  37 37
M  ZZI  37 125
M  ZZM  38 5
M  ZZI  38 1
M  ZZM  39 37
M  ZZI  39 125
M  ZZM  40 5
M  ZZI  40 1
M  ZZM  41 37
M  ZZI  41 124
M  ZZM  42 3
M  ZZI  42 121
M  ZZM  43 7
M  ZZI  43 81
M  END
> <NAME>
Z343521112

> <Score>
-26.576553

> <Natom>
43

> <Nflex>
4

> <Hbond>
-2.964368

> <Hphob>
-5.826639

> <VwInt>
-29.221885

> <Eintl>
5.67263

> <Dsolv>
11.015044

> <SolEl>
5.132951

> <mfScore>
-89.172471

> <RecConf>
1

> <molLogP>
3.369912

$$$$
Z645517702
  MOLSOFT 11211612053D

 43 45  0  0  0  0  0  0  0  0999 V2000
  -30.9829    8.1402   69.9105 N   0  0  0
  -31.5020    9.0374   69.3863 C   0  0  0
  -32.1574   10.1633   68.7975 C   0  0  0
  -32.3862   10.2243   67.4217 C   0  0  0
  -32.9808   11.2942   66.8688 N   0  0  0
  -33.4143   12.2519   67.6950 C   0  0  0
  -33.9225   13.0754   67.2118 H   0  0  0
  -33.2576   12.2479   69.0596 C   0  0  0
  -33.6308   13.0655   69.6656 H   0  0  0
  -32.6016   11.1820   69.6268 C   0  0  0
  -32.4464   11.1501   70.7019 H   0  0  0
  -31.9531    9.1745   66.5819 N   0  0  0
  -31.7445    8.2776   67.0123 H   0  0  0
  -32.4688    9.1415   65.2143 C   0  0  0
  -32.4796   10.1291   64.7461 H   0  0  0
  -31.7993    8.5300   64.6002 H   0  0  0
  -33.8440    8.5281   65.1949 C   0  0  0
  -34.0051    7.1571   65.2624 C   0  0  0
  -33.1420    6.5072   65.2611 H   0  0  0
  -35.2789    6.6311   65.3463 C   0  0  0
  -36.4051    7.3449   65.2708 N   0  0  0
  -36.2294    8.6709   65.2265 C   0  0  0
  -37.1450    9.2559   65.2220 H   0  0  0
  -34.9995    9.2955   65.1838 C   0  0  0
  -34.9468   10.3774   65.1486 H   0  0  0
  -35.4267    5.2572   65.4569 O   0  0  0
  -35.3404    4.7781   66.7627 C   0  0  0
  -35.7700    5.5075   67.8580 C   0  0  0
  -36.1986    6.4985   67.7524 H   0  0  0
  -35.6853    4.9481   69.1150 C   0  0  0
  -36.0381    5.5237   69.9657 H   0  0  0
  -35.1768    3.6699   69.2994 C   0  0  0
  -35.1076    3.1061   70.6907 C   0  0  0
  -34.0823    3.1514   71.0709 H   0  0  0
  -35.4559    2.0689   70.7107 H   0  0  0
  -35.7523    3.6684   71.3729 H   0  0  0
  -34.7131    2.9517   68.1949 C   0  0  0
  -34.8295    3.5081   66.9294 C   0  0  0
  -34.5066    2.9497   66.0561 H   0  0  0
  -34.1348    1.5728   68.3359 C   0  0  0
  -33.5332    1.3146   67.4607 H   0  0  0
  -34.9331    0.8318   68.4420 H   0  0  0
  -33.4683    1.5123   69.2003 H   0  0  0
  2  1  3
  2  3  1
  3  4  1
  3 10  2
  4  5  2
  4 12  1
  5  6  1
  6  7  1
  6  8  2
  8  9  1
  8 10  1
 10 11  1
 12 13  1
 12 14  1
 14 15  1
 14 16  1
 14 17  1
 17 18  2
 17 24  1
 18 19  1
 18 20  1
 20 21  2
 20 26  1
 21 22  1
 22 23  1
 22 24  2
 24 25  1
 26 27  1
 27 28  2
 27 38  1
 28 29  1
 28 30  1
 30 31  1
 30 32  2
 32 33  1
 32 37  1
 33 34  1
 33 35  1
 33 36  1
 37 38  2
 37 40  1
 38 39  1
 40 41  1
 40 42  1
 40 43  1
M  ZZC   1 n4
M  ZZC   2 c20
M  ZZC   3 c16
M  ZZC   4 c15
M  ZZC   5 n3
M  ZZC   6 c19
M  ZZC   7 h1
M  ZZC   8 c18
M  ZZC   9 h2
M  ZZC  10 c17
M  ZZC  11 h3
M  ZZC  12 n2
M  ZZC  13 h4
M  ZZC  14 c14
M  ZZC  15 h5
M  ZZC  16 h6
M  ZZC  17 c11
M  ZZC  18 c10
M  ZZC  19 h9
M  ZZC  20 c9
M  ZZC  21 n1
M  ZZC  22 c13
M  ZZC  23 h7
M  ZZC  24 c12
M  ZZC  25 h8
M  ZZC  26 o1
M  ZZC  27 c5
M  ZZC  28 c4
M  ZZC  29 h14
M  ZZC  30 c3
M  ZZC  31 h15
M  ZZC  32 c2
M  ZZC  33 c1
M  ZZC  34 h16
M  ZZC  35 h17
M  ZZC  36 h18
M  ZZC  37 c7
M  ZZC  38 c6
M  ZZC  39 h13
M  ZZC  40 c8
M  ZZC  41 h10
M  ZZC  42 h11
M  ZZC  43 h12
M  ZZM   1 42
M  ZZI   1 225
M  ZZM   2 4
M  ZZI   2 130
M  ZZM   3 37
M  ZZI   3 124
M  ZZM   4 37
M  ZZI   4 124
M  ZZM   5 38
M  ZZI   5 223
M  ZZM   6 37
M  ZZI   6 125
M  ZZM   7 5
M  ZZI   7 1
M  ZZM   8 37
M  ZZI   8 125
M  ZZM   9 5
M  ZZI   9 1
M  ZZM  10 37
M  ZZI  10 125
M  ZZM  11 5
M  ZZI  11 1
M  ZZM  12 40
M  ZZI  12 194
M  ZZM  13 28
M  ZZI  13 11
M  ZZM  14 1
M  ZZI  14 112
M  ZZM  15 5
M  ZZI  15 1
M  ZZM  16 5
M  ZZI  16 1
M  ZZM  17 37
M  ZZI  17 124
M  ZZM  18 37
M  ZZI  18 125
M  ZZM  19 5
M  ZZI  19 1
M  ZZM  20 37
M  ZZI  20 124
M  ZZM  21 38
M  ZZI  21 223
M  ZZM  22 37
M  ZZI  22 125
M  ZZM  23 5
M  ZZI  23 1
M  ZZM  24 37
M  ZZI  24 125
M  ZZM  25 5
M  ZZI  25 1
M  ZZM  26 6
M  ZZI  26 59
M  ZZM  27 37
M  ZZI  27 124
M  ZZM  28 37
M  ZZI  28 125
M  ZZM  29 5
M  ZZI  29 1
M  ZZM  30 37
M  ZZI  30 125
M  ZZM  31 5
M  ZZI  31 1
M  ZZM  32 37
M  ZZI  32 124
M  ZZM  33 1
M  ZZI  33 111
M  ZZM  34 5
M  ZZI  34 1
M  ZZM  35 5
M  ZZI  35 1
M  ZZM  36 5
M  ZZI  36 1
M  ZZM  37 37
M  ZZI  37 124
M  ZZM  38 37
M  ZZI  38 125
M  ZZM  39 5
M  ZZI  39 1
M  ZZM  40 1
M  ZZI  40 111
M  ZZM  41 5
M  ZZI  41 1
M  ZZM  42 5
M  ZZI  42 1
M  ZZM  43 5
M  ZZI  43 1
M  END
> <NAME>
Z645517702

> <Score>
-26.368252

> <Natom>
43

> <Nflex>
3

> <Hbond>
-3.838177

> <Hphob>
-7.641656

> <VwInt>
-28.919728

> <Eintl>
7.300592

> <Dsolv>
13.410361

> <SolEl>
8.370002

> <mfScore>
-100.441361

> <RecConf>
1

> <molLogP>
3.784177

$$$$
Z1172203371
  MOLSOFT 11211612053D

 43 46  0  0  0  0  0  0  0  0999 V2000
  -34.9357    4.0028   69.7869 H   0  0  0
  -35.0641    4.2497   68.7369 C   0  0  0
  -35.2140    5.5631   68.3141 C   0  0  0
  -35.1805    6.5885   69.2474 C   0  0  0
  -35.0405    6.3727   70.3027 H   0  0  0
  -35.3304    7.8993   68.8527 C   0  0  0
  -35.3109    8.6966   69.5897 H   0  0  0
  -35.5165    8.1921   67.5202 C   0  0  0
  -35.6802    9.2268   67.2396 H   0  0  0
  -35.5176    7.1698   66.5780 C   0  0  0
  -35.3895    5.8336   66.9558 C   0  0  0
  -35.4104    4.8485   66.0358 N   0  0  0
  -35.2424    3.5955   66.4758 C   0  0  0
  -35.2471    2.8316   65.7063 H   0  0  0
  -35.0720    3.2463   67.7948 C   0  0  0
  -34.9500    2.2068   68.0805 H   0  0  0
  -35.6686    7.4495   65.2129 O   0  0  0
  -34.7748    8.4964   64.7902 C   0  0  0
  -35.2245    8.9904   63.9255 H   0  0  0
  -34.6806    9.2714   65.5488 H   0  0  0
  -33.4228    7.9160   64.3840 C   0  0  0
  -33.4935    7.5791   63.3444 H   0  0  0
  -33.1873    7.0223   64.9700 H   0  0  0
  -32.2993    8.9404   64.5133 C   0  0  0
  -31.4538    8.6061   63.9038 H   0  0  0
  -32.5969    9.9193   64.1259 H   0  0  0
  -31.8420    9.0055   65.9015 N   0  0  0
  -31.2852    8.2388   66.2711 H   0  0  0
  -32.2459   10.0292   66.7816 C   0  0  0
  -31.9260    9.9839   68.1347 C   0  0  0
  -32.4033   10.9716   68.9605 C   0  0  0
  -33.1666   12.0020   68.6061 N   0  0  0
  -33.3782   11.9701   67.2907 C   0  0  0
  -33.9821   12.7856   66.9152 H   0  0  0
  -32.9578   11.0922   66.3677 N   0  0  0
  -31.9332   10.6880   70.2174 N   0  0  0
  -32.1440   11.4931   71.4109 C   0  0  0
  -31.6832   12.4725   71.2476 H   0  0  0
  -31.6751   10.9911   72.2626 H   0  0  0
  -33.2216   11.5904   71.5747 H   0  0  0
  -31.1941    9.5566   70.2747 N   0  0  0
  -31.1942    9.1358   69.0042 C   0  0  0
  -30.6522    8.2332   68.7612 H   0  0  0
  2  1  1
  2  3  1
  2 15  2
  3  4  1
  3 11  2
  4  5  1
  4  6  2
  6  7  1
  6  8  1
  8  9  1
  8 10  2
 10 11  1
 10 17  1
 11 12  1
 12 13  2
 13 14  1
 13 15  1
 15 16  1
 17 18  1
 18 19  1
 18 20  1
 18 21  1
 21 22  1
 21 23  1
 21 24  1
 24 25  1
 24 26  1
 24 27  1
 27 28  1
 27 29  1
 29 30  1
 29 35  2
 30 31  2
 30 42  1
 31 32  1
 31 36  1
 32 33  2
 33 34  1
 33 35  1
 36 37  1
 36 41  1
 37 38  1
 37 39  1
 37 40  1
 41 42  2
 42 43  1
M  ZZC   1 h1
M  ZZC   2 c18
M  ZZC   3 c14
M  ZZC   4 c13
M  ZZC   5 h4
M  ZZC   6 c12
M  ZZC   7 h5
M  ZZC   8 c11
M  ZZC   9 h6
M  ZZC  10 c10
M  ZZC  11 c15
M  ZZC  12 n6
M  ZZC  13 c16
M  ZZC  14 h3
M  ZZC  15 c17
M  ZZC  16 h2
M  ZZC  17 o1
M  ZZC  18 c9
M  ZZC  19 h7
M  ZZC  20 h8
M  ZZC  21 c8
M  ZZC  22 h10
M  ZZC  23 h9
M  ZZC  24 c7
M  ZZC  25 h11
M  ZZC  26 h12
M  ZZC  27 n5
M  ZZC  28 h13
M  ZZC  29 c5
M  ZZC  30 c3
M  ZZC  31 c2
M  ZZC  32 n4
M  ZZC  33 c6
M  ZZC  34 h14
M  ZZC  35 n3
M  ZZC  36 n1
M  ZZC  37 c1
M  ZZC  38 h16
M  ZZC  39 h17
M  ZZC  40 h18
M  ZZC  41 n2
M  ZZC  42 c4
M  ZZC  43 h15
M  ZZM   1 5
M  ZZI   1 1
M  ZZM   2 37
M  ZZI   2 125
M  ZZM   3 37
M  ZZI   3 124
M  ZZM   4 37
M  ZZI   4 125
M  ZZM   5 5
M  ZZI   5 1
M  ZZM   6 37
M  ZZI   6 125
M  ZZM   7 5
M  ZZI   7 1
M  ZZM   8 37
M  ZZI   8 125
M  ZZM   9 5
M  ZZI   9 1
M  ZZM  10 37
M  ZZI  10 124
M  ZZM  11 37
M  ZZI  11 124
M  ZZM  12 38
M  ZZI  12 223
M  ZZM  13 37
M  ZZI  13 125
M  ZZM  14 5
M  ZZI  14 1
M  ZZM  15 37
M  ZZI  15 125
M  ZZM  16 5
M  ZZI  16 1
M  ZZM  17 6
M  ZZI  17 59
M  ZZM  18 1
M  ZZI  18 112
M  ZZM  19 5
M  ZZI  19 1
M  ZZM  20 5
M  ZZI  20 1
M  ZZM  21 1
M  ZZI  21 112
M  ZZM  22 5
M  ZZI  22 1
M  ZZM  23 5
M  ZZI  23 1
M  ZZM  24 1
M  ZZI  24 112
M  ZZM  25 5
M  ZZI  25 1
M  ZZM  26 5
M  ZZI  26 1
M  ZZM  27 40
M  ZZI  27 194
M  ZZM  28 28
M  ZZI  28 11
M  ZZM  29 37
M  ZZI  29 124
M  ZZM  30 64
M  ZZI  30 105
M  ZZM  31 63
M  ZZI  31 104
M  ZZM  32 38
M  ZZI  32 223
M  ZZM  33 37
M  ZZI  33 125
M  ZZM  34 5
M  ZZI  34 6
M  ZZM  35 38
M  ZZI  35 223
M  ZZM  36 39
M  ZZI  36 215
M  ZZM  37 1
M  ZZI  37 111
M  ZZM  38 5
M  ZZI  38 1
M  ZZM  39 5
M  ZZI  39 1
M  ZZM  40 5
M  ZZI  40 1
M  ZZM  41 65
M  ZZI  41 207
M  ZZM  42 64
M  ZZI  42 105
M  ZZM  43 5
M  ZZI  43 1
M  END
> <NAME>
Z1172203371

> <Score>
-26.16221

> <Natom>
43

> <Nflex>
4

> <Hbond>
-4.002016

> <Hphob>
-6.749734

> <VwInt>
-30.317257

> <Eintl>
8.890677

> <Dsolv>
14.742039

> <SolEl>
8.099907

> <mfScore>
-102.235485

> <RecConf>
1

> <molLogP>
2.431271

$$$$
Z954331544
  MOLSOFT 11211612053D

 43 45  0  0  1  0  0  0  0  0999 V2000
  -34.2808   12.7968   69.2963 H   0  0  0
  -33.3648   12.3040   68.9674 C   0  0  0
  -32.5978   13.0710   68.8369 H   0  0  0
  -33.0355   11.6259   69.7590 H   0  0  0
  -33.6010   11.5597   67.7154 C   0  0  0
  -34.5303   10.5548   67.6171 N   0  0  0
  -34.3895   10.1774   66.3651 C   0  0  0
  -33.4455   10.8853   65.6950 O   0  0  0
  -32.9267   11.8103   66.5879 N   0  0  0
  -35.0570    9.0636   65.6286 C   0  0  1
  -36.1047    9.3205   65.4379 H   0  0  0
  -34.3561    8.7671   64.3022 C   0  0  0
  -34.8417    7.9576   63.7509 H   0  0  0
  -33.3126    8.4705   64.4547 H   0  0  0
  -34.3653    9.6492   63.6576 H   0  0  0
  -35.0397    7.9099   66.5056 N   0  0  0
  -34.5036    7.9876   67.3630 H   0  0  0
  -35.6829    6.7316   66.2115 C   0  0  0
  -36.3155    6.5104   65.1917 O   0  0  0
  -35.5064    5.7206   67.2765 C   0  0  0
  -35.2181    4.4720   66.9031 C   0  0  0
  -35.1159    4.1473   65.8717 H   0  0  0
  -34.9175    3.5690   67.9949 C   0  0  0
  -34.2637    2.3745   67.7591 C   0  0  0
  -33.9719    2.0987   66.7503 H   0  0  0
  -33.9515    1.5393   68.8114 C   0  0  0
  -33.3980    0.6317   68.6164 H   0  0  0
  -34.3236    1.8598   70.1021 C   0  0  0
  -34.0592    1.1978   70.9203 H   0  0  0
  -35.0046    3.0430   70.3344 C   0  0  0
  -35.2733    3.9086   69.2903 C   0  0  0
  -35.9558    5.0842   69.5958 O   0  0  0
  -35.6221    6.1488   68.7011 C   0  0  0
  -34.6954    6.6171   69.0511 H   0  0  0
  -36.4213    6.8887   68.7946 H   0  0  0
  -35.3598    3.4428   71.6205 O   0  0  0
  -36.1819    2.4530   72.2519 C   0  0  0
  -36.3771    1.6052   71.5894 H   0  0  0
  -35.6576    2.0841   73.1388 H   0  0  0
  -37.4894    3.1118   72.6517 C   0  0  0
  -38.1299    2.4175   73.2028 H   0  0  0
  -38.0301    3.4579   71.7659 H   0  0  0
  -37.3072    3.9955   73.2691 H   0  0  0
  2  1  1
  2  3  1
  2  4  1
  2  5  1
  5  6  1
  5  9  2
  6  7  2
  7  8  1
 10  7  1
  8  9  1
 10 11  1
 10 12  1
 10 16  1
 12 13  1
 12 14  1
 12 15  1
 16 17  1
 16 18  1
 18 19  2
 18 20  1
 20 21  2
 20 33  1
 21 22  1
 21 23  1
 23 24  1
 23 31  2
 24 25  1
 24 26  2
 26 27  1
 26 28  1
 28 29  1
 28 30  2
 30 31  1
 30 36  1
 31 32  1
 32 33  1
 33 34  1
 33 35  1
 36 37  1
 37 38  1
 37 39  1
 37 40  1
 40 41  1
 40 42  1
 40 43  1
M  ZZC   1 h1
M  ZZC   2 c17
M  ZZC   3 h2
M  ZZC   4 h3
M  ZZC   5 c16
M  ZZC   6 n2
M  ZZC   7 c15
M  ZZC   8 o4
M  ZZC   9 n3
M  ZZC  10 c13
M  ZZC  11 h7
M  ZZC  12 c14
M  ZZC  13 h4
M  ZZC  14 h5
M  ZZC  15 h6
M  ZZC  16 n1
M  ZZC  17 h8
M  ZZC  18 c12
M  ZZC  19 o3
M  ZZC  20 c10
M  ZZC  21 c11
M  ZZC  22 h9
M  ZZC  23 c7
M  ZZC  24 c6
M  ZZC  25 h12
M  ZZC  26 c5
M  ZZC  27 h13
M  ZZC  28 c4
M  ZZC  29 h14
M  ZZC  30 c3
M  ZZC  31 c8
M  ZZC  32 o2
M  ZZC  33 c9
M  ZZC  34 h10
M  ZZC  35 h11
M  ZZC  36 o1
M  ZZC  37 c2
M  ZZC  38 h15
M  ZZC  39 h16
M  ZZC  40 c1
M  ZZC  41 h17
M  ZZC  42 h18
M  ZZC  43 h19
M  ZZM   1 5
M  ZZI   1 1
M  ZZM   2 1
M  ZZI   2 111
M  ZZM   3 5
M  ZZI   3 1
M  ZZM   4 5
M  ZZI   4 1
M  ZZM   5 64
M  ZZI   5 105
M  ZZM   6 66
M  ZZI   6 222
M  ZZM   7 63
M  ZZI   7 104
M  ZZM   8 59
M  ZZI   8 56
M  ZZM   9 65
M  ZZI   9 207
M  ZZM  10 1
M  ZZI  10 113
M  ZZM  11 5
M  ZZI  11 1
M  ZZM  12 1
M  ZZI  12 111
M  ZZM  13 5
M  ZZI  13 1
M  ZZM  14 5
M  ZZI  14 1
M  ZZM  15 5
M  ZZI  15 1
M  ZZM  16 10
M  ZZI  16 211
M  ZZM  17 28
M  ZZI  17 11
M  ZZM  18 3
M  ZZI  18 121
M  ZZM  19 7
M  ZZI  19 81
M  ZZM  20 2
M  ZZI  20 120
M  ZZM  21 2
M  ZZI  21 120
M  ZZM  22 5
M  ZZI  22 1
M  ZZM  23 37
M  ZZI  23 124
M  ZZM  24 37
M  ZZI  24 125
M  ZZM  25 5
M  ZZI  25 1
M  ZZM  26 37
M  ZZI  26 125
M  ZZM  27 5
M  ZZI  27 1
M  ZZM  28 37
M  ZZI  28 125
M  ZZM  29 5
M  ZZI  29 1
M  ZZM  30 37
M  ZZI  30 124
M  ZZM  31 37
M  ZZI  31 124
M  ZZM  32 6
M  ZZI  32 59
M  ZZM  33 1
M  ZZI  33 112
M  ZZM  34 5
M  ZZI  34 1
M  ZZM  35 5
M  ZZI  35 1
M  ZZM  36 6
M  ZZI  36 59
M  ZZM  37 1
M  ZZI  37 112
M  ZZM  38 5
M  ZZI  38 1
M  ZZM  39 5
M  ZZI  39 1
M  ZZM  40 1
M  ZZI  40 111
M  ZZM  41 5
M  ZZI  41 1
M  ZZM  42 5
M  ZZI  42 1
M  ZZM  43 5
M  ZZI  43 1
M  END
> <NAME>
Z954331544

> <Score>
-25.946302

> <Natom>
43

> <Nflex>
3

> <Hbond>
-2.773637

> <Hphob>
-6.653538

> <VwInt>
-27.499459

> <Eintl>
9.731828

> <Dsolv>
12.241997

> <SolEl>
3.10126

> <mfScore>
-89.284115

> <RecConf>
1

> <molLogP>
2.104179

$$$$
Z1139949457
  MOLSOFT 11211612053D

 43 46  0  0  0  0  0  0  0  0999 V2000
  -36.2219    6.3877   69.0205 H   0  0  0
  -35.3091    6.0683   68.5066 C   0  0  0
  -34.4761    6.7393   68.7396 H   0  0  0
  -34.9860    4.6450   68.8025 C   0  0  0
  -34.9924    3.9051   67.6560 C   0  0  0
  -34.6924    2.5602   67.6641 C   0  0  0
  -34.6894    1.9869   66.7435 H   0  0  0
  -34.3993    1.9648   68.8768 C   0  0  0
  -34.1612    0.9065   68.9117 H   0  0  0
  -34.4133    2.7083   70.0471 C   0  0  0
  -34.1881    2.2242   70.9920 H   0  0  0
  -34.7089    4.0607   70.0229 C   0  0  0
  -34.7157    4.6430   70.9389 H   0  0  0
  -35.3557    4.7511   66.4906 C   0  0  0
  -34.5545    4.7987   65.7484 H   0  0  0
  -36.2862    4.4203   66.0168 H   0  0  0
  -35.5413    6.0683   67.0703 N   0  0  0
  -35.9896    7.1169   66.2829 C   0  0  0
  -36.3270    6.9362   65.1230 O   0  0  0
  -36.0937    8.4880   66.9218 C   0  0  0
  -36.3766    8.3843   67.9674 H   0  0  0
  -36.8967    9.0434   66.4244 H   0  0  0
  -34.8927    9.3326   66.8570 N   0  0  0
  -34.2417    9.7969   65.7280 C   0  0  0
  -34.4626    9.2982   64.3478 C   0  0  0
  -35.5108    9.0524   64.2032 H   0  0  0
  -34.2470   10.0938   63.6362 H   0  0  0
  -33.4431    7.8380   63.9402 S   0  0  0
  -31.8019    8.5998   63.9322 C   0  0  0
  -31.0648    7.8628   63.6056 H   0  0  0
  -31.5269    8.9310   64.9363 H   0  0  0
  -31.7768    9.4415   63.2365 H   0  0  0
  -33.4272   10.7869   66.0379 N   0  0  0
  -33.4852   10.9054   67.3988 C   0  0  0
  -32.8204   11.7986   68.2194 C   0  0  0
  -32.1614   12.5491   67.8003 H   0  0  0
  -33.0058   11.6937   69.5818 C   0  0  0
  -32.4790   12.3745   70.2429 H   0  0  0
  -33.8396   10.7335   70.1153 C   0  0  0
  -33.9509   10.6696   71.1931 H   0  0  0
  -34.5492    9.8647   69.3099 C   0  0  0
  -34.3505    9.9793   67.9441 C   0  0  0
  -35.2172    9.1297   69.7462 H   0  0  0
  2  1  1
  2  3  1
  2  4  1
  2 17  1
  4  5  2
  4 12  1
  5  6  1
  5 14  1
  6  7  1
  6  8  2
  8  9  1
  8 10  1
 10 11  1
 10 12  2
 12 13  1
 14 15  1
 14 16  1
 14 17  1
 17 18  1
 18 19  2
 18 20  1
 20 21  1
 20 22  1
 20 23  1
 23 24  1
 23 42  1
 24 25  1
 24 33  2
 25 26  1
 25 27  1
 25 28  1
 28 29  1
 29 30  1
 29 31  1
 29 32  1
 33 34  1
 34 35  1
 34 42  2
 35 36  1
 35 37  2
 37 38  1
 37 39  1
 39 40  1
 39 41  2
 41 42  1
 41 43  1
M  ZZC   1 h1
M  ZZC   2 c19
M  ZZC   3 h2
M  ZZC   4 c18
M  ZZC   5 c13
M  ZZC   6 c14
M  ZZC   7 h6
M  ZZC   8 c15
M  ZZC   9 h5
M  ZZC  10 c16
M  ZZC  11 h4
M  ZZC  12 c17
M  ZZC  13 h3
M  ZZC  14 c12
M  ZZC  15 h7
M  ZZC  16 h8
M  ZZC  17 n3
M  ZZC  18 c11
M  ZZC  19 o1
M  ZZC  20 c10
M  ZZC  21 h10
M  ZZC  22 h9
M  ZZC  23 n2
M  ZZC  24 c3
M  ZZC  25 c2
M  ZZC  26 h15
M  ZZC  27 h16
M  ZZC  28 s1
M  ZZC  29 c1
M  ZZC  30 h17
M  ZZC  31 h18
M  ZZC  32 h19
M  ZZC  33 n1
M  ZZC  34 c4
M  ZZC  35 c5
M  ZZC  36 h14
M  ZZC  37 c6
M  ZZC  38 h13
M  ZZC  39 c7
M  ZZC  40 h12
M  ZZC  41 c8
M  ZZC  42 c9
M  ZZC  43 h11
M  ZZM   1 5
M  ZZI   1 1
M  ZZM   2 1
M  ZZI   2 112
M  ZZM   3 5
M  ZZI   3 1
M  ZZM   4 37
M  ZZI   4 124
M  ZZM   5 37
M  ZZI   5 124
M  ZZM   6 37
M  ZZI   6 125
M  ZZM   7 5
M  ZZI   7 1
M  ZZM   8 37
M  ZZI   8 125
M  ZZM   9 5
M  ZZI   9 1
M  ZZM  10 37
M  ZZI  10 125
M  ZZM  11 5
M  ZZI  11 1
M  ZZM  12 37
M  ZZI  12 125
M  ZZM  13 5
M  ZZI  13 1
M  ZZM  14 1
M  ZZI  14 112
M  ZZM  15 5
M  ZZI  15 1
M  ZZM  16 5
M  ZZI  16 1
M  ZZM  17 10
M  ZZI  17 192
M  ZZM  18 3
M  ZZI  18 121
M  ZZM  19 7
M  ZZI  19 81
M  ZZM  20 1
M  ZZI  20 112
M  ZZM  21 5
M  ZZI  21 1
M  ZZM  22 5
M  ZZI  22 1
M  ZZM  23 39
M  ZZI  23 215
M  ZZM  24 63
M  ZZI  24 104
M  ZZM  25 1
M  ZZI  25 112
M  ZZM  26 5
M  ZZI  26 1
M  ZZM  27 5
M  ZZI  27 1
M  ZZM  28 15
M  ZZI  28 253
M  ZZM  29 1
M  ZZI  29 111
M  ZZM  30 5
M  ZZI  30 1
M  ZZM  31 5
M  ZZI  31 1
M  ZZM  32 5
M  ZZI  32 1
M  ZZM  33 66
M  ZZI  33 222
M  ZZM  34 64
M  ZZI  34 105
M  ZZM  35 37
M  ZZI  35 125
M  ZZM  36 5
M  ZZI  36 1
M  ZZM  37 37
M  ZZI  37 125
M  ZZM  38 5
M  ZZI  38 1
M  ZZM  39 37
M  ZZI  39 125
M  ZZM  40 5
M  ZZI  40 1
M  ZZM  41 37
M  ZZI  41 125
M  ZZM  42 63
M  ZZI  42 104
M  ZZM  43 5
M  ZZI  43 1
M  END
> <NAME>
Z1139949457

> <Score>
-25.840393

> <Natom>
43

> <Nflex>
5

> <Hbond>
-3.079397

> <Hphob>
-7.625407

> <VwInt>
-26.425202

> <Eintl>
7.033239

> <Dsolv>
8.002111

> <SolEl>
6.792608

> <mfScore>
-83.192219

> <RecConf>
1

> <molLogP>
2.712681

$$$$
Z1192985612
  MOLSOFT 11211612053D

 43 45  0  0  0  0  0  0  0  0999 V2000
  -33.7343    2.6450   66.1069 H   0  0  0
  -34.6655    3.1457   66.3873 C   0  0  0
  -34.6102    4.1836   66.0489 H   0  0  0
  -35.4948    2.6686   65.8629 H   0  0  0
  -34.8734    3.0657   67.8681 C   0  0  0
  -34.9325    1.8538   68.5266 C   0  0  0
  -34.8330    0.9323   67.9628 H   0  0  0
  -35.1269    1.7761   69.8879 C   0  0  0
  -35.1750    0.7867   70.3336 H   0  0  0
  -35.2606    2.8933   70.7003 C   0  0  0
  -35.4776    2.7002   72.1716 C   0  0  0
  -36.5278    2.8751   72.4255 H   0  0  0
  -34.8461    3.3829   72.7472 H   0  0  0
  -35.2135    1.6840   72.4793 H   0  0  0
  -35.2196    4.1366   70.0618 C   0  0  0
  -35.0325    4.1633   68.6899 C   0  0  0
  -35.0205    5.4473   68.2416 O   0  0  0
  -35.1621    6.2653   69.3210 C   0  0  0
  -35.3236    5.5106   70.4703 C   0  0  0
  -35.5394    6.0424   71.8380 C   0  0  0
  -34.5831    6.1908   72.3483 H   0  0  0
  -36.1521    5.3665   72.4387 H   0  0  0
  -36.0718    6.9972   71.8146 H   0  0  0
  -35.1147    7.6827   69.0797 C   0  0  0
  -34.9721    8.5268   69.9522 O   0  0  0
  -35.2532    7.9960   67.7483 N   0  0  0
  -35.3493    7.2336   67.0824 H   0  0  0
  -35.2708    9.3684   67.2878 C   0  0  0
  -34.3284    9.8372   67.5896 H   0  0  0
  -36.0739    9.8849   67.8208 H   0  0  0
  -35.4899    9.4644   65.7805 C   0  0  0
  -35.5969   10.5106   65.4991 H   0  0  0
  -36.3996    8.9290   65.4880 H   0  0  0
  -34.3618    8.9442   65.0318 N   0  0  0
  -33.1728    9.6067   64.8704 C   0  0  0
  -32.9015   10.7145   65.3131 O   0  0  0
  -32.2540    8.7326   64.0450 C   0  0  0
  -31.3849    8.3995   64.6202 H   0  0  0
  -31.9746    9.2036   63.0980 H   0  0  0
  -33.1285    7.6115   63.7932 N   0  0  0
  -32.8750    6.8105   63.2243 H   0  0  0
  -34.3446    7.7540   64.3807 C   0  0  0
  -35.2608    6.9507   64.3261 O   0  0  0
  2  1  1
  2  3  1
  2  4  1
  2  5  1
  5  6  2
  5 16  1
  6  7  1
  6  8  1
  8  9  1
  8 10  2
 10 11  1
 10 15  1
 11 12  1
 11 13  1
 11 14  1
 15 16  2
 15 19  1
 16 17  1
 17 18  1
 18 19  2
 18 24  1
 19 20  1
 20 21  1
 20 22  1
 20 23  1
 24 25  2
 24 26  1
 26 27  1
 26 28  1
 28 29  1
 28 30  1
 28 31  1
 31 32  1
 31 33  1
 31 34  1
 34 35  1
 34 42  1
 35 36  2
 35 37  1
 37 38  1
 37 39  1
 37 40  1
 40 41  1
 40 42  1
 42 43  2
M  ZZC   1 h1
M  ZZC   2 c17
M  ZZC   3 h2
M  ZZC   4 h3
M  ZZC   5 c5
M  ZZC   6 c4
M  ZZC   7 h15
M  ZZC   8 c3
M  ZZC   9 h16
M  ZZC  10 c2
M  ZZC  11 c1
M  ZZC  12 h17
M  ZZC  13 h18
M  ZZC  14 h19
M  ZZC  15 c7
M  ZZC  16 c6
M  ZZC  17 o1
M  ZZC  18 c9
M  ZZC  19 c8
M  ZZC  20 c16
M  ZZC  21 h4
M  ZZC  22 h5
M  ZZC  23 h6
M  ZZC  24 c10
M  ZZC  25 o2
M  ZZC  26 n1
M  ZZC  27 h14
M  ZZC  28 c11
M  ZZC  29 h12
M  ZZC  30 h13
M  ZZC  31 c12
M  ZZC  32 h10
M  ZZC  33 h11
M  ZZC  34 n2
M  ZZC  35 c13
M  ZZC  36 o3
M  ZZC  37 c14
M  ZZC  38 h8
M  ZZC  39 h9
M  ZZC  40 n3
M  ZZC  41 h7
M  ZZC  42 c15
M  ZZC  43 o4
M  ZZM   1 5
M  ZZI   1 1
M  ZZM   2 1
M  ZZI   2 111
M  ZZM   3 5
M  ZZI   3 1
M  ZZM   4 5
M  ZZI   4 1
M  ZZM   5 37
M  ZZI   5 124
M  ZZM   6 37
M  ZZI   6 125
M  ZZM   7 5
M  ZZI   7 1
M  ZZM   8 37
M  ZZI   8 125
M  ZZM   9 5
M  ZZI   9 1
M  ZZM  10 37
M  ZZI  10 124
M  ZZM  11 1
M  ZZI  11 111
M  ZZM  12 5
M  ZZI  12 1
M  ZZM  13 5
M  ZZI  13 1
M  ZZM  14 5
M  ZZI  14 1
M  ZZM  15 64
M  ZZI  15 105
M  ZZM  16 63
M  ZZI  16 104
M  ZZM  17 59
M  ZZI  17 56
M  ZZM  18 63
M  ZZI  18 104
M  ZZM  19 64
M  ZZI  19 105
M  ZZM  20 1
M  ZZI  20 111
M  ZZM  21 5
M  ZZI  21 1
M  ZZM  22 5
M  ZZI  22 1
M  ZZM  23 5
M  ZZI  23 1
M  ZZM  24 3
M  ZZI  24 121
M  ZZM  25 7
M  ZZI  25 81
M  ZZM  26 10
M  ZZI  26 211
M  ZZM  27 28
M  ZZI  27 11
M  ZZM  28 1
M  ZZI  28 112
M  ZZM  29 5
M  ZZI  29 1
M  ZZM  30 5
M  ZZI  30 1
M  ZZM  31 1
M  ZZI  31 112
M  ZZM  32 5
M  ZZI  32 1
M  ZZM  33 5
M  ZZI  33 1
M  ZZM  34 10
M  ZZI  34 192
M  ZZM  35 3
M  ZZI  35 121
M  ZZM  36 7
M  ZZI  36 81
M  ZZM  37 1
M  ZZI  37 112
M  ZZM  38 5
M  ZZI  38 1
M  ZZM  39 5
M  ZZI  39 1
M  ZZM  40 10
M  ZZI  40 211
M  ZZM  41 28
M  ZZI  41 11
M  ZZM  42 3
M  ZZI  42 121
M  ZZM  43 7
M  ZZI  43 81
M  END
> <NAME>
Z1192985612

> <Score>
-25.746176

> <Natom>
43

> <Nflex>
3

> <Hbond>
-4.056374

> <Hphob>
-5.75087

> <VwInt>
-25.629929

> <Eintl>
2.930061

> <Dsolv>
10.835244

> <SolEl>
6.171256

> <mfScore>
-94.893356

> <RecConf>
1

> <molLogP>
1.142714

$$$$
Z18491919
  MOLSOFT 11211612053D

 43 45  0  0  0  0  0  0  0  0999 V2000
  -34.0151   10.8414   65.8417 O   0  0  0
  -34.4426   10.3998   66.9013 C   0  0  0
  -33.8688   10.7104   68.2314 C   0  0  0
  -33.1705   11.8924   68.3963 C   0  0  0
  -33.0667   12.5996   67.5785 H   0  0  0
  -32.5907   12.1760   69.6154 C   0  0  0
  -32.0527   13.1069   69.7133 H   0  0  0
  -32.6853   11.2726   70.6672 C   0  0  0
  -32.0761   11.4565   71.9151 O   0  0  0
  -31.1668   12.5588   71.9744 C   0  0  0
  -30.6469   12.5111   72.9344 H   0  0  0
  -31.7075   13.5079   71.9427 H   0  0  0
  -30.4073   12.4944   71.1879 H   0  0  0
  -33.3985   10.0949   70.5033 C   0  0  0
  -34.0015    9.8132   69.2830 C   0  0  0
  -34.5455    8.8905   69.1368 H   0  0  0
  -33.4458    9.2422   71.6131 O   0  0  0
  -34.0607    7.9766   71.3605 C   0  0  0
  -35.1292    8.0996   71.1592 H   0  0  0
  -33.9620    7.3686   72.2635 H   0  0  0
  -33.5553    7.4461   70.5470 H   0  0  0
  -35.5102    9.5641   67.0892 O   0  0  0
  -36.1326    9.0674   65.8932 C   0  0  0
  -35.5831    9.3508   64.9906 H   0  0  0
  -37.1604    9.4401   65.8398 H   0  0  0
  -36.1535    7.5603   66.0159 C   0  0  0
  -36.2542    6.8422   65.0328 O   0  0  0
  -36.0946    7.1539   67.3354 N   0  0  0
  -36.2419    7.8722   68.0342 H   0  0  0
  -35.8232    5.8510   67.8101 C   0  0  0
  -35.9303    5.6482   69.1854 C   0  0  0
  -36.2862    6.4458   69.8271 H   0  0  0
  -35.5823    4.4427   69.7679 C   0  0  0
  -35.6511    4.2827   70.8389 H   0  0  0
  -35.1254    3.4597   68.9275 C   0  0  0
  -35.0448    3.6351   67.5920 C   0  0  0
  -35.3952    4.8177   66.9798 C   0  0  0
  -35.2878    4.9230   65.9066 H   0  0  0
  -34.5616    2.5251   66.9489 O   0  0  0
  -34.3651    1.6339   68.0639 C   0  0  0
  -33.3167    1.3172   68.0831 H   0  0  0
  -34.9889    0.7448   67.9294 H   0  0  0
  -34.6963    2.2237   69.3316 O   0  0  0
  2  1  2
  2  3  1
  2 22  1
  3  4  2
  3 15  1
  4  5  1
  4  6  1
  6  7  1
  6  8  2
  8  9  1
  8 14  1
  9 10  1
 10 11  1
 10 12  1
 10 13  1
 14 15  2
 14 17  1
 15 16  1
 17 18  1
 18 19  1
 18 20  1
 18 21  1
 22 23  1
 23 24  1
 23 25  1
 23 26  1
 26 27  2
 26 28  1
 28 29  1
 28 30  1
 30 31  2
 30 37  1
 31 32  1
 31 33  1
 33 34  1
 33 35  2
 35 36  1
 35 43  1
 36 37  2
 36 39  1
 37 38  1
 39 40  1
 40 41  1
 40 42  1
 40 43  1
M  ZZC   1 o3
M  ZZC   2 c9
M  ZZC   3 c5
M  ZZC   4 c4
M  ZZC   5 h13
M  ZZC   6 c3
M  ZZC   7 h14
M  ZZC   8 c2
M  ZZC   9 o1
M  ZZC  10 c1
M  ZZC  11 h15
M  ZZC  12 h16
M  ZZC  13 h17
M  ZZC  14 c7
M  ZZC  15 c6
M  ZZC  16 h12
M  ZZC  17 o2
M  ZZC  18 c8
M  ZZC  19 h10
M  ZZC  20 h11
M  ZZC  21 h9
M  ZZC  22 o4
M  ZZC  23 c10
M  ZZC  24 h7
M  ZZC  25 h8
M  ZZC  26 c11
M  ZZC  27 o5
M  ZZC  28 n1
M  ZZC  29 h6
M  ZZC  30 c12
M  ZZC  31 c13
M  ZZC  32 h5
M  ZZC  33 c14
M  ZZC  34 h4
M  ZZC  35 c15
M  ZZC  36 c16
M  ZZC  37 c17
M  ZZC  38 h3
M  ZZC  39 o6
M  ZZC  40 c18
M  ZZC  41 h1
M  ZZC  42 h2
M  ZZC  43 o7
M  ZZM   1 7
M  ZZI   1 82
M  ZZM   2 3
M  ZZI   2 123
M  ZZM   3 37
M  ZZI   3 124
M  ZZM   4 37
M  ZZI   4 125
M  ZZM   5 5
M  ZZI   5 1
M  ZZM   6 37
M  ZZI   6 125
M  ZZM   7 5
M  ZZI   7 1
M  ZZM   8 37
M  ZZI   8 124
M  ZZM   9 6
M  ZZI   9 59
M  ZZM  10 1
M  ZZI  10 111
M  ZZM  11 5
M  ZZI  11 1
M  ZZM  12 5
M  ZZI  12 1
M  ZZM  13 5
M  ZZI  13 1
M  ZZM  14 37
M  ZZI  14 124
M  ZZM  15 37
M  ZZI  15 125
M  ZZM  16 5
M  ZZI  16 1
M  ZZM  17 6
M  ZZI  17 59
M  ZZM  18 1
M  ZZI  18 111
M  ZZM  19 5
M  ZZI  19 1
M  ZZM  20 5
M  ZZI  20 1
M  ZZM  21 5
M  ZZI  21 1
M  ZZM  22 6
M  ZZI  22 65
M  ZZM  23 1
M  ZZI  23 112
M  ZZM  24 5
M  ZZI  24 1
M  ZZM  25 5
M  ZZI  25 1
M  ZZM  26 3
M  ZZI  26 121
M  ZZM  27 7
M  ZZI  27 81
M  ZZM  28 10
M  ZZI  28 191
M  ZZM  29 28
M  ZZI  29 11
M  ZZM  30 37
M  ZZI  30 124
M  ZZM  31 37
M  ZZI  31 125
M  ZZM  32 5
M  ZZI  32 1
M  ZZM  33 37
M  ZZI  33 125
M  ZZM  34 5
M  ZZI  34 1
M  ZZM  35 37
M  ZZI  35 124
M  ZZM  36 37
M  ZZI  36 124
M  ZZM  37 37
M  ZZI  37 125
M  ZZM  38 5
M  ZZI  38 1
M  ZZM  39 6
M  ZZI  39 59
M  ZZM  40 1
M  ZZI  40 112
M  ZZM  41 5
M  ZZI  41 1
M  ZZM  42 5
M  ZZI  42 1
M  ZZM  43 6
M  ZZI  43 59
M  END
> <NAME>
Z18491919

> <Score>
-25.67196

> <Natom>
43

> <Nflex>
2

> <Hbond>
-2.711398

> <Hphob>
-6.596311

> <VwInt>
-29.365479

> <Eintl>
6.246029

> <Dsolv>
11.577982

> <SolEl>
7.711208

> <mfScore>
-66.675385

> <RecConf>
1

> <molLogP>
2.876044

$$$$
Z212037038
  MOLSOFT 11211612053D

 43 45  0  0  0  0  0  0  0  0999 V2000
  -31.8479   12.0427   71.7383 Cl  0  0  0
  -32.2933   11.4782   70.1685 C   0  0  0
  -31.6994   10.3407   69.6546 C   0  0  0
  -30.9569    9.8002   70.2335 H   0  0  0
  -32.0494    9.8896   68.3960 C   0  0  0
  -31.5838    8.9841   68.0246 H   0  0  0
  -32.9955   10.5908   67.6560 C   0  0  0
  -33.5978   11.7152   68.1851 C   0  0  0
  -34.3421   12.2561   67.6101 H   0  0  0
  -33.2428   12.1658   69.4398 C   0  0  0
  -33.7091   13.0575   69.8433 H   0  0  0
  -33.4385   10.2044   66.3895 O   0  0  0
  -32.4212    9.5879   65.5809 C   0  0  0
  -32.4850   10.0502   64.5919 H   0  0  0
  -31.4242    9.8066   65.9691 H   0  0  0
  -32.6320    8.0829   65.4450 C   0  0  0
  -31.7828    7.6463   64.9116 H   0  0  0
  -32.6731    7.6082   66.4282 H   0  0  0
  -33.8405    7.7448   64.6960 N   0  0  0
  -33.7050    7.5963   63.2594 C   0  0  0
  -33.2232    6.6390   63.0561 H   0  0  0
  -34.6822    7.6077   62.7714 H   0  0  0
  -33.0882    8.4055   62.8608 H   0  0  0
  -35.0465    7.4124   65.2860 C   0  0  0
  -35.9721    6.9193   64.6638 O   0  0  0
  -35.1178    7.6536   66.6294 N   0  0  0
  -34.4484    8.2771   67.0577 H   0  0  0
  -36.1841    7.1044   67.4358 C   0  0  0
  -37.1084    7.0495   66.8522 H   0  0  0
  -36.3293    7.7966   68.2673 H   0  0  0
  -35.7859    5.7531   67.9162 C   0  0  0
  -35.2842    4.8026   67.1556 N   0  0  0
  -34.9368    3.7151   67.9194 C   0  0  0
  -34.3236    2.5654   67.4520 C   0  0  0
  -34.0808    2.4621   66.3998 H   0  0  0
  -34.0104    1.5664   68.3457 C   0  0  0
  -33.5058    0.6790   67.9864 H   0  0  0
  -34.3240    1.6796   69.6807 C   0  0  0
  -34.0740    0.8698   70.3591 H   0  0  0
  -34.9461    2.8090   70.1688 C   0  0  0
  -35.1878    2.8964   71.2236 H   0  0  0
  -35.2304    3.8204   69.2717 C   0  0  0
  -35.9544    5.3473   69.5735 S   0  0  0
  2  1  1
  2  3  1
  2 10  2
  3  4  1
  3  5  2
  5  6  1
  5  7  1
  7  8  2
  7 12  1
  8  9  1
  8 10  1
 10 11  1
 12 13  1
 13 14  1
 13 15  1
 13 16  1
 16 17  1
 16 18  1
 16 19  1
 19 20  1
 19 24  1
 20 21  1
 20 22  1
 20 23  1
 24 25  2
 24 26  1
 26 27  1
 26 28  1
 28 29  1
 28 30  1
 28 31  1
 31 32  2
 31 43  1
 32 33  1
 33 34  1
 33 42  2
 34 35  1
 34 36  2
 36 37  1
 36 38  1
 38 39  1
 38 40  2
 40 41  1
 40 42  1
 42 43  1
M  ZZC   1 &Cl1
M  ZZC   2 c7
M  ZZC   3 c6
M  ZZC   4 h10
M  ZZC   5 c5
M  ZZC   6 h11
M  ZZC   7 c4
M  ZZC   8 c9
M  ZZC   9 h8
M  ZZC  10 c8
M  ZZC  11 h9
M  ZZC  12 o1
M  ZZC  13 c3
M  ZZC  14 h12
M  ZZC  15 h13
M  ZZC  16 c2
M  ZZC  17 h14
M  ZZC  18 h15
M  ZZC  19 n1
M  ZZC  20 c1
M  ZZC  21 h16
M  ZZC  22 h17
M  ZZC  23 h18
M  ZZC  24 c10
M  ZZC  25 o2
M  ZZC  26 n2
M  ZZC  27 h7
M  ZZC  28 c11
M  ZZC  29 h5
M  ZZC  30 h6
M  ZZC  31 c12
M  ZZC  32 n3
M  ZZC  33 c13
M  ZZC  34 c14
M  ZZC  35 h4
M  ZZC  36 c15
M  ZZC  37 h3
M  ZZC  38 c16
M  ZZC  39 h2
M  ZZC  40 c17
M  ZZC  41 h1
M  ZZC  42 c18
M  ZZC  43 s1
M  ZZM   1 12
M  ZZI   1 92
M  ZZM   2 37
M  ZZI   2 124
M  ZZM   3 37
M  ZZI   3 125
M  ZZM   4 5
M  ZZI   4 1
M  ZZM   5 37
M  ZZI   5 125
M  ZZM   6 5
M  ZZI   6 1
M  ZZM   7 37
M  ZZI   7 124
M  ZZM   8 37
M  ZZI   8 125
M  ZZM   9 5
M  ZZI   9 1
M  ZZM  10 37
M  ZZI  10 125
M  ZZM  11 5
M  ZZI  11 1
M  ZZM  12 6
M  ZZI  12 59
M  ZZM  13 1
M  ZZI  13 112
M  ZZM  14 5
M  ZZI  14 1
M  ZZM  15 5
M  ZZI  15 1
M  ZZM  16 1
M  ZZI  16 112
M  ZZM  17 5
M  ZZI  17 1
M  ZZM  18 5
M  ZZI  18 1
M  ZZM  19 10
M  ZZI  19 192
M  ZZM  20 1
M  ZZI  20 111
M  ZZM  21 5
M  ZZI  21 1
M  ZZM  22 5
M  ZZI  22 1
M  ZZM  23 5
M  ZZI  23 1
M  ZZM  24 3
M  ZZI  24 121
M  ZZM  25 7
M  ZZI  25 81
M  ZZM  26 10
M  ZZI  26 211
M  ZZM  27 28
M  ZZI  27 11
M  ZZM  28 1
M  ZZI  28 112
M  ZZM  29 5
M  ZZI  29 1
M  ZZM  30 5
M  ZZI  30 1
M  ZZM  31 63
M  ZZI  31 104
M  ZZM  32 66
M  ZZI  32 222
M  ZZM  33 64
M  ZZI  33 105
M  ZZM  34 37
M  ZZI  34 125
M  ZZM  35 5
M  ZZI  35 1
M  ZZM  36 37
M  ZZI  36 125
M  ZZM  37 5
M  ZZI  37 1
M  ZZM  38 37
M  ZZI  38 125
M  ZZM  39 5
M  ZZI  39 1
M  ZZM  40 37
M  ZZI  40 125
M  ZZM  41 5
M  ZZI  41 1
M  ZZM  42 63
M  ZZI  42 104
M  ZZM  43 44
M  ZZI  43 248
M  END
> <NAME>
Z212037038

> <Score>
-25.631282

> <Natom>
43

> <Nflex>
8

> <Hbond>
-1.975699

> <Hphob>
-7.226482

> <VwInt>
-29.794597

> <Eintl>
8.260858

> <Dsolv>
9.548096

> <SolEl>
3.094702

> <mfScore>
-93.661851

> <RecConf>
1

> <molLogP>
4.039539

$$$$
Z247352142
  MOLSOFT 11211612053D

 43 45  0  0  1  0  0  0  0  0999 V2000
  -36.3486    7.0908   65.0751 O   0  0  0
  -35.8660    7.4125   66.1512 C   0  0  0
  -35.7195    8.8357   66.6187 C   0  0  0
  -36.1392    9.4971   65.8526 H   0  0  0
  -36.3378    8.9743   67.5097 H   0  0  0
  -34.2533    9.1593   66.9190 C   0  0  2
  -33.9144    8.5213   67.7437 H   0  0  0
  -34.1008   10.5325   67.3680 N   0  0  0
  -34.7824   11.2335   67.1153 H   0  0  0
  -33.0093   10.9349   68.0770 C   0  0  0
  -32.0942   10.2131   68.4331 O   0  0  0
  -33.0308   12.2595   68.3368 N   0  0  0
  -32.2106   12.6767   68.7636 H   0  0  0
  -33.8393   12.8356   68.1401 H   0  0  0
  -33.3459    8.9266   65.7498 C   0  0  0
  -32.0877    8.3547   65.7551 C   0  0  0
  -31.5955    8.0230   66.6584 H   0  0  0
  -31.5180    8.2613   64.4629 C   0  0  0
  -30.5442    7.8461   64.2439 H   0  0  0
  -32.3512    8.7539   63.4895 C   0  0  0
  -32.1711    8.7835   62.4256 H   0  0  0
  -33.8052    9.3809   64.1491 S   0  0  0
  -35.3878    6.5460   67.0845 O   0  0  0
  -35.4765    5.1804   66.6759 C   0  0  0
  -34.6604    4.9744   65.9759 H   0  0  0
  -36.4337    4.9728   66.1866 H   0  0  0
  -35.3463    4.3161   67.8959 C   0  0  0
  -35.8858    4.7244   69.1079 C   0  0  0
  -36.4009    5.6770   69.1906 H   0  0  0
  -35.8075    3.9181   70.2230 C   0  0  0
  -35.1623    2.6882   70.1528 C   0  0  0
  -34.6416    2.2699   68.9388 C   0  0  0
  -33.8500    0.7399   68.8018 Cl  0  0  0
  -34.7384    3.0720   67.8175 C   0  0  0
  -34.3338    2.7220   66.8716 H   0  0  0
  -35.0121    1.8477   71.2517 O   0  0  0
  -35.3010    2.5749   72.4435 C   0  0  0
  -34.4583    3.2405   72.6669 H   0  0  0
  -35.3871    1.8483   73.2565 H   0  0  0
  -36.5980    3.3373   72.2918 C   0  0  0
  -36.8931    3.7742   73.2502 H   0  0  0
  -37.4175    2.6981   71.9452 H   0  0  0
  -36.4218    4.4078   71.3691 O   0  0  0
  2  1  2
  2  3  1
  2 23  1
  3  4  1
  3  5  1
  6  3  1
  6  7  1
  6  8  1
  6 15  1
  8  9  1
  8 10  1
 10 11  2
 10 12  1
 12 13  1
 12 14  1
 15 16  2
 15 22  1
 16 17  1
 16 18  1
 18 19  1
 18 20  2
 20 21  1
 20 22  1
 23 24  1
 24 25  1
 24 26  1
 24 27  1
 27 28  2
 27 34  1
 28 29  1
 28 30  1
 30 31  2
 30 43  1
 31 32  1
 31 36  1
 32 33  1
 32 34  2
 34 35  1
 36 37  1
 37 38  1
 37 39  1
 37 40  1
 40 41  1
 40 42  1
 40 43  1
M  ZZC   1 o1
M  ZZC   2 c7
M  ZZC   3 c6
M  ZZC   4 h12
M  ZZC   5 h13
M  ZZC   6 c5
M  ZZC   7 h17
M  ZZC   8 n1
M  ZZC   9 h3
M  ZZC  10 c17
M  ZZC  11 o5
M  ZZC  12 n2
M  ZZC  13 h1
M  ZZC  14 h2
M  ZZC  15 c3
M  ZZC  16 c2
M  ZZC  17 h15
M  ZZC  18 c1
M  ZZC  19 h16
M  ZZC  20 c4
M  ZZC  21 h14
M  ZZC  22 s1
M  ZZC  23 o2
M  ZZC  24 c8
M  ZZC  25 h10
M  ZZC  26 h11
M  ZZC  27 c9
M  ZZC  28 c10
M  ZZC  29 h9
M  ZZC  30 c11
M  ZZC  31 c12
M  ZZC  32 c13
M  ZZC  33 &Cl1
M  ZZC  34 c14
M  ZZC  35 h8
M  ZZC  36 o3
M  ZZC  37 c15
M  ZZC  38 h6
M  ZZC  39 h7
M  ZZC  40 c16
M  ZZC  41 h4
M  ZZC  42 h5
M  ZZC  43 o4
M  ZZM   1 7
M  ZZI   1 82
M  ZZM   2 3
M  ZZI   2 123
M  ZZM   3 1
M  ZZI   3 112
M  ZZM   4 5
M  ZZI   4 1
M  ZZM   5 5
M  ZZI   5 1
M  ZZM   6 1
M  ZZI   6 113
M  ZZM   7 5
M  ZZI   7 1
M  ZZM   8 10
M  ZZI   8 211
M  ZZM   9 28
M  ZZI   9 11
M  ZZM  10 3
M  ZZI  10 121
M  ZZM  11 7
M  ZZI  11 81
M  ZZM  12 10
M  ZZI  12 212
M  ZZM  13 28
M  ZZI  13 11
M  ZZM  14 28
M  ZZI  14 11
M  ZZM  15 63
M  ZZI  15 104
M  ZZM  16 64
M  ZZI  16 105
M  ZZM  17 5
M  ZZI  17 1
M  ZZM  18 64
M  ZZI  18 105
M  ZZM  19 5
M  ZZI  19 1
M  ZZM  20 63
M  ZZI  20 104
M  ZZM  21 5
M  ZZI  21 1
M  ZZM  22 44
M  ZZI  22 248
M  ZZM  23 6
M  ZZI  23 65
M  ZZM  24 1
M  ZZI  24 112
M  ZZM  25 5
M  ZZI  25 1
M  ZZM  26 5
M  ZZI  26 1
M  ZZM  27 37
M  ZZI  27 124
M  ZZM  28 37
M  ZZI  28 125
M  ZZM  29 5
M  ZZI  29 1
M  ZZM  30 37
M  ZZI  30 124
M  ZZM  31 37
M  ZZI  31 124
M  ZZM  32 37
M  ZZI  32 124
M  ZZM  33 12
M  ZZI  33 92
M  ZZM  34 37
M  ZZI  34 125
M  ZZM  35 5
M  ZZI  35 1
M  ZZM  36 6
M  ZZI  36 59
M  ZZM  37 1
M  ZZI  37 112
M  ZZM  38 5
M  ZZI  38 1
M  ZZM  39 5
M  ZZI  39 1
M  ZZM  40 1
M  ZZI  40 112
M  ZZM  41 5
M  ZZI  41 1
M  ZZM  42 5
M  ZZI  42 1
M  ZZM  43 6
M  ZZI  43 59
M  END
> <NAME>
Z247352142

> <Score>
-25.449759

> <Natom>
43

> <Nflex>
7

> <Hbond>
-4.776308

> <Hphob>
-5.919415

> <VwInt>
-29.440776

> <Eintl>
9.736491

> <Dsolv>
14.299558

> <SolEl>
7.752145

> <mfScore>
-107.13598

> <RecConf>
1

> <molLogP>
2.544059

$$$$
Z17630626
  MOLSOFT 11211612053D

 43 45  0  0  0  0  0  0  0  0999 V2000
  -37.5625    6.0020   69.9963 F   0  0  0
  -36.3462    5.4990   70.3199 C   0  0  0
  -36.5344    4.8038   71.4748 F   0  0  0
  -35.5762    6.5678   70.6516 F   0  0  0
  -35.7519    4.6812   69.2125 C   0  0  0
  -35.6632    5.1588   67.8989 C   0  0  0
  -35.1470    4.3337   66.9039 C   0  0  0
  -35.0595    4.6731   65.8783 H   0  0  0
  -34.6953    3.0641   67.1922 C   0  0  0
  -34.2866    2.4493   66.3943 H   0  0  0
  -34.7679    2.6199   68.4994 C   0  0  0
  -35.2924    3.4052   69.5069 C   0  0  0
  -35.3451    3.0313   70.5274 H   0  0  0
  -34.2607    1.2992   68.8389 N   0  0  0
  -34.5154    0.8647   69.9663 O   0  0  0
  -33.6008    0.7133   67.9803 O   0  0  0
  -36.0674    6.4897   67.6063 N   0  0  0
  -36.2848    7.0920   68.3922 H   0  0  0
  -36.2546    7.0020   66.3266 C   0  0  0
  -36.2959    6.3411   65.2992 O   0  0  0
  -36.4168    8.5082   66.2833 C   0  0  0
  -37.4075    8.7386   65.8837 H   0  0  0
  -36.3623    8.9347   67.2870 H   0  0  0
  -35.1556    9.2259   65.1704 S   0  0  0
  -34.2187   10.1803   66.2801 C   0  0  0
  -33.3683   11.1173   65.9207 N   0  0  0
  -32.8544   11.6472   67.0841 N   0  0  0
  -33.3925   10.9550   68.0637 C   0  0  0
  -34.2773   10.0297   67.6238 O   0  0  0
  -33.2138   11.0437   69.5033 C   0  0  0
  -33.2815    9.9205   70.3383 C   0  0  0
  -33.4902    8.5285   69.8114 C   0  0  0
  -34.5257    8.3985   69.4853 H   0  0  0
  -33.2864    7.7831   70.5858 H   0  0  0
  -32.8100    8.3129   68.9814 H   0  0  0
  -33.1430   10.0896   71.7062 C   0  0  0
  -33.2072    9.2369   72.3757 H   0  0  0
  -32.9205   11.3359   72.2433 C   0  0  0
  -32.8126   11.4536   73.3141 H   0  0  0
  -32.8297   12.4343   71.4245 C   0  0  0
  -32.6532   13.4092   71.8645 H   0  0  0
  -32.9697   12.2886   70.0611 C   0  0  0
  -32.9010   13.1663   69.4246 H   0  0  0
  2  1  1
  2  3  1
  2  4  1
  2  5  1
  5  6  1
  5 12  2
  6  7  2
  6 17  1
  7  8  1
  7  9  1
  9 10  1
  9 11  2
 11 12  1
 11 14  1
 12 13  1
 14 15  2
 14 16  2
 17 18  1
 17 19  1
 19 20  2
 19 21  1
 21 22  1
 21 23  1
 21 24  1
 24 25  1
 25 26  2
 25 29  1
 26 27  1
 27 28  2
 28 29  1
 28 30  1
 30 31  1
 30 42  2
 31 32  1
 31 36  2
 32 33  1
 32 34  1
 32 35  1
 36 37  1
 36 38  1
 38 39  1
 38 40  2
 40 41  1
 40 42  1
 42 43  1
M  ZZC   1 f1
M  ZZC   2 c18
M  ZZC   3 f2
M  ZZC   4 f3
M  ZZC   5 c17
M  ZZC   6 c12
M  ZZC   7 c13
M  ZZC   8 h3
M  ZZC   9 c14
M  ZZC  10 h2
M  ZZC  11 c15
M  ZZC  12 c16
M  ZZC  13 h1
M  ZZC  14 n4
M  ZZC  15 o3
M  ZZC  16 o4
M  ZZC  17 n3
M  ZZC  18 h4
M  ZZC  19 c11
M  ZZC  20 o2
M  ZZC  21 c10
M  ZZC  22 h5
M  ZZC  23 h6
M  ZZC  24 s1
M  ZZC  25 c9
M  ZZC  26 n2
M  ZZC  27 n1
M  ZZC  28 c8
M  ZZC  29 o1
M  ZZC  30 c7
M  ZZC  31 c2
M  ZZC  32 c1
M  ZZC  33 h11
M  ZZC  34 h12
M  ZZC  35 h13
M  ZZC  36 c3
M  ZZC  37 h10
M  ZZC  38 c4
M  ZZC  39 h9
M  ZZC  40 c5
M  ZZC  41 h8
M  ZZC  42 c6
M  ZZC  43 h7
M  ZZM   1 11
M  ZZI   1 90
M  ZZM   2 1
M  ZZI   2 110
M  ZZM   3 11
M  ZZI   3 90
M  ZZM   4 11
M  ZZI   4 90
M  ZZM   5 37
M  ZZI   5 124
M  ZZM   6 37
M  ZZI   6 124
M  ZZM   7 37
M  ZZI   7 125
M  ZZM   8 5
M  ZZI   8 1
M  ZZM   9 37
M  ZZI   9 125
M  ZZM  10 5
M  ZZI  10 1
M  ZZM  11 37
M  ZZI  11 124
M  ZZM  12 37
M  ZZI  12 125
M  ZZM  13 5
M  ZZI  13 1
M  ZZM  14 45
M  ZZI  14 227
M  ZZM  15 32
M  ZZI  15 73
M  ZZM  16 32
M  ZZI  16 73
M  ZZM  17 10
M  ZZI  17 191
M  ZZM  18 28
M  ZZI  18 11
M  ZZM  19 3
M  ZZI  19 121
M  ZZM  20 7
M  ZZI  20 81
M  ZZM  21 1
M  ZZI  21 112
M  ZZM  22 5
M  ZZI  22 1
M  ZZM  23 5
M  ZZI  23 1
M  ZZM  24 15
M  ZZI  24 240
M  ZZM  25 63
M  ZZI  25 104
M  ZZM  26 66
M  ZZI  26 222
M  ZZM  27 66
M  ZZI  27 222
M  ZZM  28 63
M  ZZI  28 104
M  ZZM  29 59
M  ZZI  29 56
M  ZZM  30 37
M  ZZI  30 124
M  ZZM  31 37
M  ZZI  31 124
M  ZZM  32 1
M  ZZI  32 111
M  ZZM  33 5
M  ZZI  33 1
M  ZZM  34 5
M  ZZI  34 1
M  ZZM  35 5
M  ZZI  35 1
M  ZZM  36 37
M  ZZI  36 125
M  ZZM  37 5
M  ZZI  37 1
M  ZZM  38 37
M  ZZI  38 125
M  ZZM  39 5
M  ZZI  39 1
M  ZZM  40 37
M  ZZI  40 125
M  ZZM  41 5
M  ZZI  41 1
M  ZZM  42 37
M  ZZI  42 125
M  ZZM  43 5
M  ZZI  43 1
M  END
> <NAME>
Z17630626

> <Score>
-25.433187

> <Natom>
43

> <Nflex>
4

> <Hbond>
-3.087076

> <Hphob>
-5.517642

> <VwInt>
-31.413677

> <Eintl>
8.029406

> <Dsolv>
12.80349

> <SolEl>
8.310598

> <mfScore>
-69.795818

> <RecConf>
1

> <molLogP>
3.972944

$$$$
Z335712020
  MOLSOFT 11211612053D

 43 45  0  0  0  0  0  0  0  0999 V2000
  -30.4102    7.8403   71.2890 O   0  0  0
  -31.0480    8.7356   70.7572 C   0  0  0
  -31.0828   10.0855   71.3579 C   0  0  0
  -30.5226   10.1980   72.2789 H   0  0  0
  -31.7580   11.1061   70.8209 C   0  0  0
  -31.7805   12.4578   71.4649 C   0  0  0
  -31.3033   13.1966   70.8175 H   0  0  0
  -32.8049   12.7760   71.6829 H   0  0  0
  -31.2286   12.4599   72.4093 H   0  0  0
  -32.4783   10.8595   69.5738 C   0  0  0
  -32.4554    9.5880   69.0301 C   0  0  0
  -31.7597    8.5374   69.6073 O   0  0  0
  -33.1292    9.2842   67.8623 C   0  0  0
  -33.0751    8.2684   67.4904 H   0  0  0
  -33.8344   10.2796   67.2012 C   0  0  0
  -33.8367   11.5587   67.7197 C   0  0  0
  -34.3686   12.3501   67.2056 H   0  0  0
  -33.1784   11.8491   68.8971 C   0  0  0
  -33.2159   12.8671   69.2706 H   0  0  0
  -34.5478   10.1078   66.0082 O   0  0  0
  -34.7888    8.7455   65.6072 C   0  0  0
  -34.9948    8.7639   64.5326 H   0  0  0
  -33.8988    8.1173   65.6991 H   0  0  0
  -36.0053    8.1586   66.3224 C   0  0  0
  -36.8935    8.7366   66.0478 H   0  0  0
  -35.9233    8.2618   67.4037 H   0  0  0
  -36.2194    6.8014   65.8893 O   0  0  0
  -35.8129    5.7863   66.7679 C   0  0  0
  -35.6304    4.5486   66.1823 C   0  0  0
  -35.8019    4.4370   65.1207 H   0  0  0
  -35.2274    3.4562   66.9222 C   0  0  0
  -35.0637    2.5022   66.4290 H   0  0  0
  -35.0461    3.6037   68.2861 C   0  0  0
  -35.2402    4.8342   68.8989 C   0  0  0
  -35.0952    4.9579   69.9683 H   0  0  0
  -35.6220    5.9277   68.1398 C   0  0  0
  -35.7842    6.8676   68.6524 H   0  0  0
  -34.4823    2.1875   69.2600 S   0  0  0
  -33.4175    1.5536   68.5117 O   0  0  0
  -34.2939    2.6349   70.6245 O   0  0  0
  -35.8276    1.1644   69.2441 N   0  0  0
  -36.3521    1.1341   70.1254 H   0  0  0
  -36.4290    1.2418   68.4197 H   0  0  0
  2  1  2
  2  3  1
  2 12  1
  3  4  1
  3  5  2
  5  6  1
  5 10  1
  6  7  1
  6  8  1
  6  9  1
 10 11  2
 10 18  1
 11 12  1
 11 13  1
 13 14  1
 13 15  2
 15 16  1
 15 20  1
 16 17  1
 16 18  2
 18 19  1
 20 21  1
 21 22  1
 21 23  1
 21 24  1
 24 25  1
 24 26  1
 24 27  1
 27 28  1
 28 29  2
 28 36  1
 29 30  1
 29 31  1
 31 32  1
 31 33  2
 33 34  1
 33 38  1
 34 35  1
 34 36  2
 36 37  1
 38 39  2
 38 40  2
 38 41  1
 41 42  1
 41 43  1
M  ZZC   1 o1
M  ZZC   2 c4
M  ZZC   3 c3
M  ZZC   4 h14
M  ZZC   5 c2
M  ZZC   6 c1
M  ZZC   7 h15
M  ZZC   8 h16
M  ZZC   9 h17
M  ZZC  10 c6
M  ZZC  11 c5
M  ZZC  12 o2
M  ZZC  13 c10
M  ZZC  14 h11
M  ZZC  15 c9
M  ZZC  16 c8
M  ZZC  17 h12
M  ZZC  18 c7
M  ZZC  19 h13
M  ZZC  20 o3
M  ZZC  21 c11
M  ZZC  22 h10
M  ZZC  23 h9
M  ZZC  24 c12
M  ZZC  25 h7
M  ZZC  26 h8
M  ZZC  27 o4
M  ZZC  28 c13
M  ZZC  29 c14
M  ZZC  30 h6
M  ZZC  31 c15
M  ZZC  32 h5
M  ZZC  33 c16
M  ZZC  34 c17
M  ZZC  35 h4
M  ZZC  36 c18
M  ZZC  37 h3
M  ZZC  38 s1
M  ZZC  39 o5
M  ZZC  40 o6
M  ZZC  41 n1
M  ZZC  42 h1
M  ZZC  43 h2
M  ZZM   1 7
M  ZZI   1 82
M  ZZM   2 3
M  ZZI   2 123
M  ZZM   3 2
M  ZZI   3 120
M  ZZM   4 5
M  ZZI   4 1
M  ZZM   5 2
M  ZZI   5 120
M  ZZM   6 1
M  ZZI   6 111
M  ZZM   7 5
M  ZZI   7 1
M  ZZM   8 5
M  ZZI   8 1
M  ZZM   9 5
M  ZZI   9 1
M  ZZM  10 37
M  ZZI  10 124
M  ZZM  11 37
M  ZZI  11 124
M  ZZM  12 6
M  ZZI  12 59
M  ZZM  13 37
M  ZZI  13 125
M  ZZM  14 5
M  ZZI  14 1
M  ZZM  15 37
M  ZZI  15 124
M  ZZM  16 37
M  ZZI  16 125
M  ZZM  17 5
M  ZZI  17 1
M  ZZM  18 37
M  ZZI  18 125
M  ZZM  19 5
M  ZZI  19 1
M  ZZM  20 6
M  ZZI  20 59
M  ZZM  21 1
M  ZZI  21 112
M  ZZM  22 5
M  ZZI  22 1
M  ZZM  23 5
M  ZZI  23 1
M  ZZM  24 1
M  ZZI  24 112
M  ZZM  25 5
M  ZZI  25 1
M  ZZM  26 5
M  ZZI  26 1
M  ZZM  27 6
M  ZZI  27 59
M  ZZM  28 37
M  ZZI  28 124
M  ZZM  29 37
M  ZZI  29 125
M  ZZM  30 5
M  ZZI  30 1
M  ZZM  31 37
M  ZZI  31 125
M  ZZM  32 5
M  ZZI  32 1
M  ZZM  33 37
M  ZZI  33 124
M  ZZM  34 37
M  ZZI  34 125
M  ZZM  35 5
M  ZZI  35 1
M  ZZM  36 37
M  ZZI  36 125
M  ZZM  37 5
M  ZZI  37 1
M  ZZM  38 18
M  ZZI  38 250
M  ZZM  39 32
M  ZZI  39 73
M  ZZM  40 32
M  ZZI  40 73
M  ZZM  41 43
M  ZZI  41 226
M  ZZM  42 28
M  ZZI  42 11
M  ZZM  43 28
M  ZZI  43 11
M  END
> <NAME>
Z335712020

> <Score>
-25.357321

> <Natom>
43

> <Nflex>
5

> <Hbond>
-5.527458

> <Hphob>
-6.475576

> <VwInt>
-29.054358

> <Eintl>
8.862568

> <Dsolv>
14.936105

> <SolEl>
11.845549

> <mfScore>
-80.282083

> <RecConf>
1

> <molLogP>
2.570825

$$$$
Z1532938217
  MOLSOFT 11211612053D

 43 44  0  0  1  0  0  0  0  0999 V2000
  -32.7546   12.1944   71.0407 Cl  0  0  0
  -32.9113   11.2606   69.5974 C   0  0  0
  -33.5023   11.8126   68.4818 C   0  0  0
  -33.8700   12.8333   68.5010 H   0  0  0
  -33.6289   11.0600   67.3323 C   0  0  0
  -34.1009   11.5119   66.4684 H   0  0  0
  -33.1771    9.7457   67.2775 C   0  0  0
  -32.5791    9.2121   68.4133 C   0  0  0
  -32.2027    8.1938   68.4099 H   0  0  0
  -32.4462    9.9624   69.5650 C   0  0  0
  -31.9740    9.5268   70.4399 H   0  0  0
  -33.3221    8.8995   66.0271 C   0  0  2
  -32.5482    8.1251   66.0853 H   0  0  0
  -33.0284    9.7023   64.8680 O   0  0  0
  -32.2472    8.9627   63.9168 C   0  0  0
  -32.0159    9.6067   63.0670 H   0  0  0
  -32.8021    8.0928   63.5521 H   0  0  0
  -31.3010    8.6412   64.3627 H   0  0  0
  -34.6950    8.1953   65.8647 C   0  0  2
  -34.7560    7.8215   64.8369 H   0  0  0
  -35.9061    9.1072   66.0495 C   0  0  0
  -36.0086    9.4455   67.0848 H   0  0  0
  -36.8327    8.5805   65.8020 H   0  0  0
  -35.8445    9.9790   65.3940 H   0  0  0
  -34.7989    7.0244   66.7250 N   0  0  0
  -34.2934    7.0086   67.6039 H   0  0  0
  -35.5384    5.9191   66.3564 C   0  0  0
  -36.2343    5.8355   65.3542 O   0  0  0
  -35.3853    4.7592   67.2674 C   0  0  0
  -35.7560    4.8215   68.6149 C   0  0  0
  -36.4264    6.0239   69.2157 C   0  0  0
  -35.6864    6.7751   69.5081 H   0  0  0
  -36.9990    5.7400   70.1042 H   0  0  0
  -37.1392    6.4650   68.5125 H   0  0  0
  -35.4738    3.7264   69.4212 C   0  0  0
  -35.7292    3.7494   70.4760 H   0  0  0
  -34.8743    2.6042   68.8792 C   0  0  0
  -34.5941    1.5048   69.6672 O   0  0  0
  -34.9780    1.6648   70.5463 H   0  0  0
  -34.5429    2.5381   67.5461 C   0  0  0
  -34.0716    1.6489   67.1437 H   0  0  0
  -34.8111    3.6160   66.7311 C   0  0  0
  -34.5458    3.5659   65.6809 H   0  0  0
  2  1  1
  2  3  1
  2 10  2
  3  4  1
  3  5  2
  5  6  1
  5  7  1
  7  8  2
 12  7  1
  8  9  1
  8 10  1
 10 11  1
 12 13  1
 12 14  1
 12 19  1
 14 15  1
 15 16  1
 15 17  1
 15 18  1
 19 20  1
 19 21  1
 19 25  1
 21 22  1
 21 23  1
 21 24  1
 25 26  1
 25 27  1
 27 28  2
 27 29  1
 29 30  1
 29 42  2
 30 31  1
 30 35  2
 31 32  1
 31 33  1
 31 34  1
 35 36  1
 35 37  1
 37 38  1
 37 40  2
 38 39  1
 40 41  1
 40 42  1
 42 43  1
M  ZZC   1 &Cl1
M  ZZC   2 c15
M  ZZC   3 c14
M  ZZC   4 h7
M  ZZC   5 c13
M  ZZC   6 h8
M  ZZC   7 c12
M  ZZC   8 c17
M  ZZC   9 h5
M  ZZC  10 c16
M  ZZC  11 h6
M  ZZC  12 c11
M  ZZC  13 h19
M  ZZC  14 o2
M  ZZC  15 c18
M  ZZC  16 h2
M  ZZC  17 h3
M  ZZC  18 h4
M  ZZC  19 c9
M  ZZC  20 h20
M  ZZC  21 c10
M  ZZC  22 h10
M  ZZC  23 h11
M  ZZC  24 h9
M  ZZC  25 n1
M  ZZC  26 h12
M  ZZC  27 c8
M  ZZC  28 o1
M  ZZC  29 c7
M  ZZC  30 c2
M  ZZC  31 c1
M  ZZC  32 h16
M  ZZC  33 h17
M  ZZC  34 h18
M  ZZC  35 c3
M  ZZC  36 h15
M  ZZC  37 c4
M  ZZC  38 o3
M  ZZC  39 h1
M  ZZC  40 c5
M  ZZC  41 h14
M  ZZC  42 c6
M  ZZC  43 h13
M  ZZM   1 12
M  ZZI   1 92
M  ZZM   2 37
M  ZZI   2 124
M  ZZM   3 37
M  ZZI   3 125
M  ZZM   4 5
M  ZZI   4 1
M  ZZM   5 37
M  ZZI   5 125
M  ZZM   6 5
M  ZZI   6 1
M  ZZM   7 37
M  ZZI   7 124
M  ZZM   8 37
M  ZZI   8 125
M  ZZM   9 5
M  ZZI   9 1
M  ZZM  10 37
M  ZZI  10 125
M  ZZM  11 5
M  ZZI  11 1
M  ZZM  12 1
M  ZZI  12 113
M  ZZM  13 5
M  ZZI  13 1
M  ZZM  14 6
M  ZZI  14 65
M  ZZM  15 1
M  ZZI  15 111
M  ZZM  16 5
M  ZZI  16 1
M  ZZM  17 5
M  ZZI  17 1
M  ZZM  18 5
M  ZZI  18 1
M  ZZM  19 1
M  ZZI  19 113
M  ZZM  20 5
M  ZZI  20 1
M  ZZM  21 1
M  ZZI  21 111
M  ZZM  22 5
M  ZZI  22 1
M  ZZM  23 5
M  ZZI  23 1
M  ZZM  24 5
M  ZZI  24 1
M  ZZM  25 10
M  ZZI  25 211
M  ZZM  26 28
M  ZZI  26 11
M  ZZM  27 3
M  ZZI  27 121
M  ZZM  28 7
M  ZZI  28 81
M  ZZM  29 37
M  ZZI  29 124
M  ZZM  30 37
M  ZZI  30 124
M  ZZM  31 1
M  ZZI  31 111
M  ZZM  32 5
M  ZZI  32 1
M  ZZM  33 5
M  ZZI  33 1
M  ZZM  34 5
M  ZZI  34 1
M  ZZM  35 37
M  ZZI  35 125
M  ZZM  36 5
M  ZZI  36 1
M  ZZM  37 37
M  ZZI  37 124
M  ZZM  38 6
M  ZZI  38 62
M  ZZM  39 29
M  ZZI  39 27
M  ZZM  40 37
M  ZZI  40 125
M  ZZM  41 5
M  ZZI  41 1
M  ZZM  42 37
M  ZZI  42 125
M  ZZM  43 5
M  ZZI  43 1
M  END
> <NAME>
Z1532938217

> <Score>
-25.160553

> <Natom>
43

> <Nflex>
4

> <Hbond>
-2.48798

> <Hphob>
-7.578982

> <VwInt>
-28.811288

> <Eintl>
5.311047

> <Dsolv>
10.805954

> <SolEl>
6.846632

> <mfScore>
-111.403358

> <RecConf>
1

> <molLogP>
3.69956

$$$$
Z18816784
  MOLSOFT 11211612053D

 43 46  0  0  0  0  0  0  0  0999 V2000
  -36.1109    6.8720   64.9063 O   0  0  0
  -35.1561    7.1520   65.6165 C   0  0  0
  -33.9056    7.5041   65.2042 O   0  0  0
  -33.8295    7.8556   63.8232 C   0  0  0
  -34.7560    8.3030   63.4496 H   0  0  0
  -33.5662    6.9712   63.2337 H   0  0  0
  -32.7321    8.8944   63.7754 C   0  0  0
  -32.8362    9.9764   64.3339 O   0  0  0
  -31.6100    8.5018   63.0983 N   0  0  0
  -30.8218    9.1329   63.0248 H   0  0  0
  -31.5201    7.5863   62.6708 H   0  0  0
  -35.1319    7.1002   67.0869 C   0  0  0
  -35.3691    5.8762   67.6773 C   0  0  0
  -35.6259    5.0065   67.0787 H   0  0  0
  -35.2580    5.7839   69.0487 C   0  0  0
  -34.9215    6.8331   69.8181 N   0  0  0
  -34.7013    8.0221   69.2336 C   0  0  0
  -34.8141    8.2193   67.8602 C   0  0  0
  -34.6123    9.4922   67.3266 C   0  0  0
  -34.7316    9.6860   66.2654 H   0  0  0
  -34.2600   10.5492   68.1389 C   0  0  0
  -34.0929   11.5349   67.7141 H   0  0  0
  -34.1171   10.3489   69.4917 C   0  0  0
  -33.8240   11.1723   70.1362 H   0  0  0
  -34.3475    9.0992   70.0270 C   0  0  0
  -34.2447    8.9533   71.0974 H   0  0  0
  -35.4704    4.5268   69.7496 C   0  0  0
  -36.4619    4.3781   70.7262 C   0  0  0
  -37.3469    5.4066   71.0410 C   0  0  0
  -37.3014    6.3606   70.5312 H   0  0  0
  -38.3245    5.2449   71.9965 C   0  0  0
  -39.0062    6.0591   72.2235 H   0  0  0
  -38.4402    4.0437   72.6546 C   0  0  0
  -39.2281    3.8996   73.3800 H   0  0  0
  -37.5760    3.0127   72.3655 C   0  0  0
  -37.6822    2.0747   72.9022 H   0  0  0
  -36.5947    3.1663   71.3985 C   0  0  0
  -35.7675    2.0998   71.0863 C   0  0  0
  -35.8660    1.1505   71.6045 H   0  0  0
  -34.8155    2.2289   70.1019 C   0  0  0
  -34.1807    1.3870   69.8427 H   0  0  0
  -34.6807    3.4261   69.4361 C   0  0  0
  -33.9314    3.4958   68.6541 H   0  0  0
  2  1  2
  2  3  1
  2 12  1
  3  4  1
  4  5  1
  4  6  1
  4  7  1
  7  8  2
  7  9  1
  9 10  1
  9 11  1
 12 13  1
 12 18  2
 13 14  1
 13 15  2
 15 16  1
 15 27  1
 16 17  2
 17 18  1
 17 25  1
 18 19  1
 19 20  1
 19 21  2
 21 22  1
 21 23  1
 23 24  1
 23 25  2
 25 26  1
 27 28  1
 27 42  2
 28 29  1
 28 37  2
 29 30  1
 29 31  2
 31 32  1
 31 33  1
 33 34  1
 33 35  2
 35 36  1
 35 37  1
 37 38  1
 38 39  1
 38 40  2
 40 41  1
 40 42  1
 42 43  1
M  ZZC   1 o1
M  ZZC   2 c20
M  ZZC   3 o2
M  ZZC   4 c21
M  ZZC   5 h3
M  ZZC   6 h4
M  ZZC   7 c22
M  ZZC   8 o3
M  ZZC   9 n2
M  ZZC  10 h1
M  ZZC  11 h2
M  ZZC  12 c13
M  ZZC  13 c12
M  ZZC  14 h9
M  ZZC  15 c11
M  ZZC  16 n1
M  ZZC  17 c19
M  ZZC  18 c14
M  ZZC  19 c15
M  ZZC  20 h8
M  ZZC  21 c16
M  ZZC  22 h7
M  ZZC  23 c17
M  ZZC  24 h6
M  ZZC  25 c18
M  ZZC  26 h5
M  ZZC  27 c10
M  ZZC  28 c4
M  ZZC  29 c3
M  ZZC  30 h14
M  ZZC  31 c2
M  ZZC  32 h15
M  ZZC  33 c1
M  ZZC  34 h16
M  ZZC  35 c6
M  ZZC  36 h13
M  ZZC  37 c5
M  ZZC  38 c7
M  ZZC  39 h12
M  ZZC  40 c8
M  ZZC  41 h11
M  ZZC  42 c9
M  ZZC  43 h10
M  ZZM   1 7
M  ZZI   1 82
M  ZZM   2 3
M  ZZI   2 123
M  ZZM   3 6
M  ZZI   3 65
M  ZZM   4 1
M  ZZI   4 112
M  ZZM   5 5
M  ZZI   5 1
M  ZZM   6 5
M  ZZI   6 1
M  ZZM   7 3
M  ZZI   7 121
M  ZZM   8 7
M  ZZI   8 81
M  ZZM   9 10
M  ZZI   9 212
M  ZZM  10 28
M  ZZI  10 11
M  ZZM  11 28
M  ZZI  11 11
M  ZZM  12 37
M  ZZI  12 124
M  ZZM  13 37
M  ZZI  13 125
M  ZZM  14 5
M  ZZI  14 1
M  ZZM  15 37
M  ZZI  15 124
M  ZZM  16 38
M  ZZI  16 223
M  ZZM  17 37
M  ZZI  17 124
M  ZZM  18 37
M  ZZI  18 124
M  ZZM  19 37
M  ZZI  19 125
M  ZZM  20 5
M  ZZI  20 1
M  ZZM  21 37
M  ZZI  21 125
M  ZZM  22 5
M  ZZI  22 1
M  ZZM  23 37
M  ZZI  23 125
M  ZZM  24 5
M  ZZI  24 1
M  ZZM  25 37
M  ZZI  25 125
M  ZZM  26 5
M  ZZI  26 1
M  ZZM  27 37
M  ZZI  27 124
M  ZZM  28 37
M  ZZI  28 124
M  ZZM  29 37
M  ZZI  29 125
M  ZZM  30 5
M  ZZI  30 1
M  ZZM  31 37
M  ZZI  31 125
M  ZZM  32 5
M  ZZI  32 1
M  ZZM  33 37
M  ZZI  33 125
M  ZZM  34 5
M  ZZI  34 1
M  ZZM  35 37
M  ZZI  35 125
M  ZZM  36 5
M  ZZI  36 1
M  ZZM  37 37
M  ZZI  37 124
M  ZZM  38 37
M  ZZI  38 125
M  ZZM  39 5
M  ZZI  39 1
M  ZZM  40 37
M  ZZI  40 125
M  ZZM  41 5
M  ZZI  41 1
M  ZZM  42 37
M  ZZI  42 125
M  ZZM  43 5
M  ZZI  43 1
M  END
> <NAME>
Z18816784

> <Score>
-25.152102

> <Natom>
43

> <Nflex>
2

> <Hbond>
-3.968683

> <Hphob>
-6.3246

> <VwInt>
-28.372102

> <Eintl>
6.161061

> <Dsolv>
14.111019

> <SolEl>
8.65907

> <mfScore>
-102.368213

> <RecConf>
1

> <molLogP>
4.202674

$$$$
Z414855960
  MOLSOFT 11211612053D

 44 45  0  0  0  0  0  0  0  0999 V2000
  -35.3498    4.8718   66.3395 H   0  0  0
  -35.3243    4.9008   67.4252 C   0  0  0
  -34.8549    3.7961   68.1223 C   0  0  0
  -34.8505    3.8023   69.5101 C   0  0  0
  -34.4000    2.6951   70.2112 C   0  0  0
  -34.3996    2.6873   71.2970 H   0  0  0
  -33.9398    1.5890   69.5320 C   0  0  0
  -33.5816    0.7258   70.0822 H   0  0  0
  -33.9262    1.5866   68.1553 C   0  0  0
  -33.5479    0.7204   67.6284 H   0  0  0
  -34.3910    2.6771   67.4483 C   0  0  0
  -34.3830    2.6481   66.3627 H   0  0  0
  -35.2963    4.9223   70.1870 C   0  0  0
  -35.3000    4.9481   71.2727 H   0  0  0
  -35.7442    6.0216   69.4892 C   0  0  0
  -36.0905    6.8824   70.0507 H   0  0  0
  -35.7692    6.0290   68.1032 C   0  0  0
  -36.3620    7.2200   67.3924 C   0  0  0
  -37.4268    7.0206   67.2316 H   0  0  0
  -36.3097    8.1103   68.0237 H   0  0  0
  -35.7595    7.5524   66.0411 C   0  0  0
  -36.2273    7.0424   65.0327 O   0  0  0
  -34.7034    8.4643   66.0030 N   0  0  0
  -34.2333    8.8935   64.6812 C   0  0  0
  -33.8900    9.9306   64.7202 H   0  0  0
  -35.0627    8.8481   63.9709 H   0  0  0
  -33.0971    8.0183   64.1818 C   0  0  0
  -32.1362    7.6961   64.8614 O   0  0  0
  -33.2200    7.6195   62.8807 N   0  0  0
  -32.4953    7.0310   62.4885 H   0  0  0
  -33.9567    7.9236   62.2551 H   0  0  0
  -33.9504    8.9225   67.1774 C   0  0  0
  -34.1838    8.3016   68.0436 H   0  0  0
  -32.8869    8.7649   66.9770 H   0  0  0
  -34.2031   10.3896   67.5152 C   0  0  0
  -33.9947   11.0198   66.6459 H   0  0  0
  -35.2593   10.5407   67.7610 H   0  0  0
  -33.3267   10.8346   68.6809 C   0  0  0
  -33.6545   10.3413   69.6017 H   0  0  0
  -32.2883   10.5337   68.5074 H   0  0  0
  -33.3688   12.3388   68.8656 C   0  0  0
  -32.9840   12.8484   67.9776 H   0  0  0
  -32.7556   12.6375   69.7201 H   0  0  0
  -34.3874   12.6881   69.0385 H   0  0  0
  2  1  1
  2  3  1
  2 17  2
  3  4  1
  3 11  2
  4  5  2
  4 13  1
  5  6  1
  5  7  1
  7  8  1
  7  9  2
  9 10  1
  9 11  1
 11 12  1
 13 14  1
 13 15  2
 15 16  1
 15 17  1
 17 18  1
 18 19  1
 18 20  1
 18 21  1
 21 22  2
 21 23  1
 23 24  1
 23 32  1
 24 25  1
 24 26  1
 24 27  1
 27 28  2
 27 29  1
 29 30  1
 29 31  1
 32 33  1
 32 34  1
 32 35  1
 35 36  1
 35 37  1
 35 38  1
 38 39  1
 38 40  1
 38 41  1
 41 42  1
 41 43  1
 41 44  1
M  ZZC   1 h1
M  ZZC   2 c18
M  ZZC   3 c17
M  ZZC   4 c12
M  ZZC   5 c13
M  ZZC   6 h5
M  ZZC   7 c14
M  ZZC   8 h4
M  ZZC   9 c15
M  ZZC  10 h3
M  ZZC  11 c16
M  ZZC  12 h2
M  ZZC  13 c11
M  ZZC  14 h6
M  ZZC  15 c10
M  ZZC  16 h7
M  ZZC  17 c9
M  ZZC  18 c8
M  ZZC  19 h8
M  ZZC  20 h9
M  ZZC  21 c7
M  ZZC  22 o2
M  ZZC  23 n1
M  ZZC  24 c5
M  ZZC  25 h12
M  ZZC  26 h13
M  ZZC  27 c6
M  ZZC  28 o1
M  ZZC  29 n2
M  ZZC  30 h10
M  ZZC  31 h11
M  ZZC  32 c4
M  ZZC  33 h14
M  ZZC  34 h15
M  ZZC  35 c3
M  ZZC  36 h16
M  ZZC  37 h17
M  ZZC  38 c2
M  ZZC  39 h18
M  ZZC  40 h19
M  ZZC  41 c1
M  ZZC  42 h20
M  ZZC  43 h21
M  ZZC  44 h22
M  ZZM   1 5
M  ZZI   1 1
M  ZZM   2 37
M  ZZI   2 125
M  ZZM   3 37
M  ZZI   3 124
M  ZZM   4 37
M  ZZI   4 124
M  ZZM   5 37
M  ZZI   5 125
M  ZZM   6 5
M  ZZI   6 1
M  ZZM   7 37
M  ZZI   7 125
M  ZZM   8 5
M  ZZI   8 1
M  ZZM   9 37
M  ZZI   9 125
M  ZZM  10 5
M  ZZI  10 1
M  ZZM  11 37
M  ZZI  11 125
M  ZZM  12 5
M  ZZI  12 1
M  ZZM  13 37
M  ZZI  13 125
M  ZZM  14 5
M  ZZI  14 1
M  ZZM  15 37
M  ZZI  15 125
M  ZZM  16 5
M  ZZI  16 1
M  ZZM  17 37
M  ZZI  17 124
M  ZZM  18 1
M  ZZI  18 112
M  ZZM  19 5
M  ZZI  19 1
M  ZZM  20 5
M  ZZI  20 1
M  ZZM  21 3
M  ZZI  21 121
M  ZZM  22 7
M  ZZI  22 81
M  ZZM  23 10
M  ZZI  23 192
M  ZZM  24 1
M  ZZI  24 112
M  ZZM  25 5
M  ZZI  25 1
M  ZZM  26 5
M  ZZI  26 1
M  ZZM  27 3
M  ZZI  27 121
M  ZZM  28 7
M  ZZI  28 81
M  ZZM  29 10
M  ZZI  29 212
M  ZZM  30 28
M  ZZI  30 11
M  ZZM  31 28
M  ZZI  31 11
M  ZZM  32 1
M  ZZI  32 112
M  ZZM  33 5
M  ZZI  33 1
M  ZZM  34 5
M  ZZI  34 1
M  ZZM  35 1
M  ZZI  35 112
M  ZZM  36 5
M  ZZI  36 1
M  ZZM  37 5
M  ZZI  37 1
M  ZZM  38 1
M  ZZI  38 112
M  ZZM  39 5
M  ZZI  39 1
M  ZZM  40 5
M  ZZI  40 1
M  ZZM  41 1
M  ZZI  41 111
M  ZZM  42 5
M  ZZI  42 1
M  ZZM  43 5
M  ZZI  43 1
M  ZZM  44 5
M  ZZI  44 1
M  END
> <NAME>
Z414855960

> <Score>
-31.718898

> <Natom>
44

> <Nflex>
8

> <Hbond>
-5.949671

> <Hphob>
-6.587464

> <VwInt>
-28.514492

> <Eintl>
4.893686

> <Dsolv>
11.413837

> <SolEl>
4.396189

> <mfScore>
-80.668846

> <RecConf>
1

> <molLogP>
3.058376

$$$$
Z742350924
  MOLSOFT 11211612053D

 44 46  0  0  1  0  0  0  0  0999 V2000
  -35.9324    6.2552   69.2259 H   0  0  0
  -35.6456    5.4017   68.6194 C   0  0  0
  -35.8185    5.4205   67.2439 C   0  0  0
  -35.4541    4.2819   66.5400 C   0  0  0
  -35.5845    4.2186   65.4656 H   0  0  0
  -34.9200    3.2145   67.2290 C   0  0  0
  -34.6222    2.3121   66.7062 H   0  0  0
  -34.7825    3.3086   68.5966 C   0  0  0
  -34.3693    2.4819   69.1656 H   0  0  0
  -35.1350    4.3795   69.3174 N   0  0  0
  -36.4427    6.6117   66.5626 C   0  0  0
  -37.5145    6.4148   66.4756 H   0  0  0
  -36.3643    7.5298   67.1524 H   0  0  0
  -35.9432    6.8086   65.2251 O   0  0  0
  -34.6596    7.3661   65.1308 C   0  0  0
  -34.0658    7.3072   63.8877 C   0  0  0
  -34.5903    6.8652   63.0500 H   0  0  0
  -32.7920    7.7982   63.7091 C   0  0  0
  -32.3193    7.7337   62.7335 H   0  0  0
  -32.1202    8.3776   64.7654 C   0  0  0
  -31.1214    8.7663   64.6015 H   0  0  0
  -32.7158    8.5041   66.0080 C   0  0  0
  -33.9827    7.9649   66.1838 C   0  0  0
  -34.4406    8.0210   67.1583 H   0  0  0
  -32.0238    9.1723   67.0480 N   0  0  0
  -31.1119    9.5546   66.8110 H   0  0  0
  -32.7795    9.8458   68.1199 C   0  0  2
  -33.5390    9.1702   68.5263 H   0  0  0
  -33.5038   11.0720   67.5490 C   0  0  0
  -33.1078   11.7271   66.5949 O   0  0  0
  -34.6702   11.3774   68.2021 N   0  0  0
  -35.1783   12.2130   67.9406 H   0  0  0
  -35.0410   10.8304   68.9698 H   0  0  0
  -31.8843   10.1782   69.2961 C   0  0  0
  -31.0640    9.1939   69.8308 C   0  0  0
  -31.0257    8.2098   69.3741 H   0  0  0
  -30.3083    9.4330   70.9595 C   0  0  0
  -29.6961    8.6403   71.3742 H   0  0  0
  -30.3426   10.6665   71.5724 C   0  0  0
  -29.7470   10.8548   72.4598 H   0  0  0
  -31.1468   11.6576   71.0568 C   0  0  0
  -31.1788   12.6312   71.5353 H   0  0  0
  -31.9173   11.4161   69.9376 C   0  0  0
  -32.5370   12.2287   69.5728 H   0  0  0
  2  1  1
  2  3  1
  2 10  2
  3  4  2
  3 11  1
  4  5  1
  4  6  1
  6  7  1
  6  8  2
  8  9  1
  8 10  1
 11 12  1
 11 13  1
 11 14  1
 14 15  1
 15 16  2
 15 23  1
 16 17  1
 16 18  1
 18 19  1
 18 20  2
 20 21  1
 20 22  1
 22 23  2
 22 25  1
 23 24  1
 25 26  1
 27 25  1
 27 28  1
 27 29  1
 27 34  1
 29 30  2
 29 31  1
 31 32  1
 31 33  1
 34 35  2
 34 43  1
 35 36  1
 35 37  1
 37 38  1
 37 39  2
 39 40  1
 39 41  1
 41 42  1
 41 43  2
 43 44  1
M  ZZC   1 h1
M  ZZC   2 c20
M  ZZC   3 c16
M  ZZC   4 c17
M  ZZC   5 h4
M  ZZC   6 c18
M  ZZC   7 h3
M  ZZC   8 c19
M  ZZC   9 h2
M  ZZC  10 n3
M  ZZC  11 c15
M  ZZC  12 h5
M  ZZC  13 h6
M  ZZC  14 o2
M  ZZC  15 c13
M  ZZC  16 c12
M  ZZC  17 h8
M  ZZC  18 c11
M  ZZC  19 h9
M  ZZC  20 c10
M  ZZC  21 h10
M  ZZC  22 c9
M  ZZC  23 c14
M  ZZC  24 h7
M  ZZC  25 n2
M  ZZC  26 h11
M  ZZC  27 c7
M  ZZC  28 h19
M  ZZC  29 c8
M  ZZC  30 o1
M  ZZC  31 n1
M  ZZC  32 h12
M  ZZC  33 h13
M  ZZC  34 c4
M  ZZC  35 c3
M  ZZC  36 h16
M  ZZC  37 c2
M  ZZC  38 h17
M  ZZC  39 c1
M  ZZC  40 h18
M  ZZC  41 c6
M  ZZC  42 h14
M  ZZC  43 c5
M  ZZC  44 h15
M  ZZM   1 5
M  ZZI   1 1
M  ZZM   2 37
M  ZZI   2 125
M  ZZM   3 37
M  ZZI   3 124
M  ZZM   4 37
M  ZZI   4 125
M  ZZM   5 5
M  ZZI   5 1
M  ZZM   6 37
M  ZZI   6 125
M  ZZM   7 5
M  ZZI   7 1
M  ZZM   8 37
M  ZZI   8 125
M  ZZM   9 5
M  ZZI   9 1
M  ZZM  10 38
M  ZZI  10 223
M  ZZM  11 1
M  ZZI  11 112
M  ZZM  12 5
M  ZZI  12 1
M  ZZM  13 5
M  ZZI  13 1
M  ZZM  14 6
M  ZZI  14 59
M  ZZM  15 37
M  ZZI  15 124
M  ZZM  16 37
M  ZZI  16 125
M  ZZM  17 5
M  ZZI  17 1
M  ZZM  18 37
M  ZZI  18 125
M  ZZM  19 5
M  ZZI  19 1
M  ZZM  20 37
M  ZZI  20 125
M  ZZM  21 5
M  ZZI  21 1
M  ZZM  22 37
M  ZZI  22 124
M  ZZM  23 37
M  ZZI  23 125
M  ZZM  24 5
M  ZZI  24 1
M  ZZM  25 40
M  ZZI  25 194
M  ZZM  26 28
M  ZZI  26 11
M  ZZM  27 1
M  ZZI  27 113
M  ZZM  28 5
M  ZZI  28 1
M  ZZM  29 3
M  ZZI  29 121
M  ZZM  30 7
M  ZZI  30 81
M  ZZM  31 10
M  ZZI  31 212
M  ZZM  32 28
M  ZZI  32 11
M  ZZM  33 28
M  ZZI  33 11
M  ZZM  34 37
M  ZZI  34 124
M  ZZM  35 37
M  ZZI  35 125
M  ZZM  36 5
M  ZZI  36 1
M  ZZM  37 37
M  ZZI  37 125
M  ZZM  38 5
M  ZZI  38 1
M  ZZM  39 37
M  ZZI  39 125
M  ZZM  40 5
M  ZZI  40 1
M  ZZM  41 37
M  ZZI  41 125
M  ZZM  42 5
M  ZZI  42 1
M  ZZM  43 37
M  ZZI  43 125
M  ZZM  44 5
M  ZZI  44 1
M  END
> <NAME>
Z742350924

> <Score>
-31.046256

> <Natom>
44

> <Nflex>
5

> <Hbond>
-5.753142

> <Hphob>
-6.948502

> <VwInt>
-31.015435

> <Eintl>
9.646436

> <Dsolv>
13.884438

> <SolEl>
8.737569

> <mfScore>
-101.319849

> <RecConf>
1

> <molLogP>
2.724298

$$$$
Z1143426987
  MOLSOFT 11211612053D

 44 45  0  0  1  0  0  0  0  0999 V2000
  -32.4074   10.3344   65.1589 H   0  0  0
  -33.0886   10.4564   65.9932 C   0  0  0
  -34.3675    9.9279   65.9228 C   0  0  0
  -35.1939   10.0531   67.0262 C   0  0  0
  -36.1956    9.6333   67.0119 H   0  0  0
  -34.7603   10.7161   68.1534 C   0  0  0
  -35.4207   10.8073   69.0028 H   0  0  0
  -33.4990   11.2658   68.2033 C   0  0  0
  -33.1649   11.7983   69.0885 H   0  0  0
  -32.6597   11.1230   67.1222 C   0  0  0
  -31.6586   11.5347   67.1621 H   0  0  0
  -34.8571    9.2124   64.6898 C   0  0  0
  -35.9499    9.1717   64.7386 H   0  0  0
  -34.6165    9.8130   63.8068 H   0  0  0
  -34.3083    7.7887   64.5518 C   0  0  1
  -34.8959    7.2531   63.7985 H   0  0  0
  -32.8624    7.7883   64.0843 C   0  0  0
  -31.9074    7.7306   64.8421 O   0  0  0
  -32.7040    7.9020   62.7324 N   0  0  0
  -31.7671    7.8447   62.3516 H   0  0  0
  -33.4738    7.9481   62.0745 H   0  0  0
  -34.3812    7.0555   65.8072 N   0  0  0
  -33.6168    7.1627   66.4689 H   0  0  0
  -35.4398    6.2314   66.1080 C   0  0  0
  -36.3925    6.0210   65.3725 O   0  0  0
  -35.3534    5.6174   67.4488 C   0  0  0
  -35.2905    6.4373   68.5650 C   0  0  0
  -35.3205    7.5161   68.4523 H   0  0  0
  -35.1995    5.8819   69.8314 C   0  0  0
  -35.1660    6.7652   71.0437 C   0  0  0
  -34.4681    6.3704   71.7887 H   0  0  0
  -36.1626    6.8330   71.4907 H   0  0  0
  -34.8300    7.7741   70.7846 H   0  0  0
  -35.1816    4.5009   69.9726 C   0  0  0
  -35.1264    4.0886   70.9734 H   0  0  0
  -35.2268    3.6778   68.8515 C   0  0  0
  -35.3272    4.2427   67.5938 C   0  0  0
  -35.3747    3.4203   66.4835 O   0  0  0
  -35.4794    2.5136   66.8327 H   0  0  0
  -35.1744    2.2814   68.8889 O   0  0  0
  -34.8835    1.7602   70.1883 C   0  0  0
  -34.7576    0.6822   70.0897 H   0  0  0
  -35.7169    1.9345   70.8770 H   0  0  0
  -33.9441    2.1658   70.5789 H   0  0  0
  2  1  1
  2  3  1
  2 10  2
  3  4  2
  3 12  1
  4  5  1
  4  6  1
  6  7  1
  6  8  2
  8  9  1
  8 10  1
 10 11  1
 12 13  1
 12 14  1
 15 12  1
 15 16  1
 15 17  1
 15 22  1
 17 18  2
 17 19  1
 19 20  1
 19 21  1
 22 23  1
 22 24  1
 24 25  2
 24 26  1
 26 27  1
 26 37  2
 27 28  1
 27 29  2
 29 30  1
 29 34  1
 30 31  1
 30 32  1
 30 33  1
 34 35  1
 34 36  2
 36 37  1
 36 40  1
 37 38  1
 38 39  1
 40 41  1
 41 42  1
 41 43  1
 41 44  1
M  ZZC   1 h3
M  ZZC   2 c17
M  ZZC   3 c12
M  ZZC   4 c13
M  ZZC   5 h7
M  ZZC   6 c14
M  ZZC   7 h6
M  ZZC   8 c15
M  ZZC   9 h5
M  ZZC  10 c16
M  ZZC  11 h4
M  ZZC  12 c11
M  ZZC  13 h8
M  ZZC  14 h9
M  ZZC  15 c10
M  ZZC  16 h20
M  ZZC  17 c18
M  ZZC  18 o4
M  ZZC  19 n2
M  ZZC  20 h1
M  ZZC  21 h2
M  ZZC  22 n1
M  ZZC  23 h10
M  ZZC  24 c9
M  ZZC  25 o3
M  ZZC  26 c4
M  ZZC  27 c3
M  ZZC  28 h16
M  ZZC  29 c2
M  ZZC  30 c1
M  ZZC  31 h17
M  ZZC  32 h18
M  ZZC  33 h19
M  ZZC  34 c7
M  ZZC  35 h15
M  ZZC  36 c6
M  ZZC  37 c5
M  ZZC  38 o2
M  ZZC  39 h11
M  ZZC  40 o1
M  ZZC  41 c8
M  ZZC  42 h12
M  ZZC  43 h13
M  ZZC  44 h14
M  ZZM   1 5
M  ZZI   1 1
M  ZZM   2 37
M  ZZI   2 125
M  ZZM   3 37
M  ZZI   3 124
M  ZZM   4 37
M  ZZI   4 125
M  ZZM   5 5
M  ZZI   5 1
M  ZZM   6 37
M  ZZI   6 125
M  ZZM   7 5
M  ZZI   7 1
M  ZZM   8 37
M  ZZI   8 125
M  ZZM   9 5
M  ZZI   9 1
M  ZZM  10 37
M  ZZI  10 125
M  ZZM  11 5
M  ZZI  11 1
M  ZZM  12 1
M  ZZI  12 112
M  ZZM  13 5
M  ZZI  13 1
M  ZZM  14 5
M  ZZI  14 1
M  ZZM  15 1
M  ZZI  15 113
M  ZZM  16 5
M  ZZI  16 1
M  ZZM  17 3
M  ZZI  17 121
M  ZZM  18 7
M  ZZI  18 81
M  ZZM  19 10
M  ZZI  19 212
M  ZZM  20 28
M  ZZI  20 11
M  ZZM  21 28
M  ZZI  21 11
M  ZZM  22 10
M  ZZI  22 211
M  ZZM  23 28
M  ZZI  23 11
M  ZZM  24 3
M  ZZI  24 121
M  ZZM  25 7
M  ZZI  25 81
M  ZZM  26 37
M  ZZI  26 124
M  ZZM  27 37
M  ZZI  27 125
M  ZZM  28 5
M  ZZI  28 1
M  ZZM  29 37
M  ZZI  29 124
M  ZZM  30 1
M  ZZI  30 111
M  ZZM  31 5
M  ZZI  31 1
M  ZZM  32 5
M  ZZI  32 1
M  ZZM  33 5
M  ZZI  33 1
M  ZZM  34 37
M  ZZI  34 125
M  ZZM  35 5
M  ZZI  35 1
M  ZZM  36 37
M  ZZI  36 124
M  ZZM  37 37
M  ZZI  37 124
M  ZZM  38 6
M  ZZI  38 62
M  ZZM  39 29
M  ZZI  39 27
M  ZZM  40 6
M  ZZI  40 59
M  ZZM  41 1
M  ZZI  41 111
M  ZZM  42 5
M  ZZI  42 1
M  ZZM  43 5
M  ZZI  43 1
M  ZZM  44 5
M  ZZI  44 1
M  END
> <NAME>
Z1143426987

> <Score>
-29.705319

> <Natom>
44

> <Nflex>
4

> <Hbond>
-6.285796

> <Hphob>
-5.864272

> <VwInt>
-26.712686

> <Eintl>
3.276892

> <Dsolv>
14.447401

> <SolEl>
5.46052

> <mfScore>
-98.160325

> <RecConf>
1

> <molLogP>
1.778051

$$$$
Z281062832
  MOLSOFT 11211612053D

 44 46  0  0  1  0  0  0  0  0999 V2000
  -32.9853    9.7179   68.9081 H   0  0  0
  -33.7979   10.2052   68.3582 C   0  0  0
  -34.5801   10.4306   69.0907 H   0  0  0
  -33.2970   11.5439   67.8131 C   0  0  0
  -33.2147   11.8361   66.6292 O   0  0  0
  -32.8967   12.4081   68.7975 N   0  0  0
  -32.4886   13.2957   68.5323 H   0  0  0
  -32.9367   12.1925   69.7870 H   0  0  0
  -34.3298    9.2979   67.3206 N   0  0  0
  -35.6613    8.7351   67.5015 C   0  0  1
  -36.3279    9.5080   67.8914 H   0  0  0
  -36.2289    8.3238   66.2526 N   0  0  0
  -37.2351    8.2003   66.1965 H   0  0  0
  -35.4948    7.7831   65.2373 C   0  0  0
  -36.0052    7.1055   64.3622 O   0  0  0
  -34.0468    8.0436   65.2466 C   0  0  0
  -33.2900    7.6119   64.1670 C   0  0  0
  -33.7426    7.0767   63.3370 H   0  0  0
  -31.9455    7.9009   64.1303 C   0  0  0
  -31.3432    7.6142   63.2756 H   0  0  0
  -31.3639    8.5570   65.1894 C   0  0  0
  -30.2974    8.7585   65.1771 H   0  0  0
  -32.1286    8.9843   66.2538 C   0  0  0
  -33.5023    8.7716   66.2919 C   0  0  0
  -31.6230    9.5140   67.0517 H   0  0  0
  -35.6059    7.5818   68.4691 C   0  0  0
  -35.2845    7.8412   69.4712 H   0  0  0
  -35.9200    6.3012   68.2016 C   0  0  0
  -36.2277    5.9871   67.2093 H   0  0  0
  -35.8695    5.2321   69.2080 C   0  0  0
  -35.3203    3.9938   68.8848 C   0  0  0
  -34.7911    3.8614   67.5950 O   0  0  0
  -34.3207    2.5449   67.2921 C   0  0  0
  -33.9776    2.5419   66.2540 H   0  0  0
  -33.4737    2.2670   67.9272 H   0  0  0
  -35.1283    1.8145   67.3762 H   0  0  0
  -35.3101    2.9686   69.8263 C   0  0  0
  -34.8846    1.9946   69.6158 H   0  0  0
  -35.8658    3.1718   71.0729 C   0  0  0
  -35.8685    2.3681   71.8029 H   0  0  0
  -36.4328    4.3876   71.3887 C   0  0  0
  -36.8849    4.5372   72.3643 H   0  0  0
  -36.4354    5.4113   70.4638 C   0  0  0
  -36.9071    6.3508   70.7315 H   0  0  0
  2  1  1
  2  3  1
  2  4  1
  2  9  1
  4  5  2
  4  6  1
  6  7  1
  6  8  1
 10  9  1
  9 24  1
 10 11  1
 10 12  1
 10 26  1
 12 13  1
 12 14  1
 14 15  2
 14 16  1
 16 17  1
 16 24  2
 17 18  1
 17 19  2
 19 20  1
 19 21  1
 21 22  1
 21 23  2
 23 24  1
 23 25  1
 26 27  1
 28 26  2
 28 29  1
 28 30  1
 30 31  1
 30 43  2
 31 32  1
 31 37  2
 32 33  1
 33 34  1
 33 35  1
 33 36  1
 37 38  1
 37 39  1
 39 40  1
 39 41  2
 41 42  1
 41 43  1
 43 44  1
M  ZZC   1 h3
M  ZZC   2 c18
M  ZZC   3 h4
M  ZZC   4 c19
M  ZZC   5 o3
M  ZZC   6 n3
M  ZZC   7 h1
M  ZZC   8 h2
M  ZZC   9 n2
M  ZZC  10 c10
M  ZZC  11 h19
M  ZZC  12 n1
M  ZZC  13 h9
M  ZZC  14 c11
M  ZZC  15 o2
M  ZZC  16 c12
M  ZZC  17 c13
M  ZZC  18 h8
M  ZZC  19 c14
M  ZZC  20 h7
M  ZZC  21 c15
M  ZZC  22 h6
M  ZZC  23 c16
M  ZZC  24 c17
M  ZZC  25 h5
M  ZZC  26 c9
M  ZZC  27 h10
M  ZZC  28 c8
M  ZZC  29 h11
M  ZZC  30 c7
M  ZZC  31 c2
M  ZZC  32 o1
M  ZZC  33 c1
M  ZZC  34 h16
M  ZZC  35 h17
M  ZZC  36 h18
M  ZZC  37 c3
M  ZZC  38 h15
M  ZZC  39 c4
M  ZZC  40 h14
M  ZZC  41 c5
M  ZZC  42 h13
M  ZZC  43 c6
M  ZZC  44 h12
M  ZZM   1 5
M  ZZI   1 1
M  ZZM   2 1
M  ZZI   2 112
M  ZZM   3 5
M  ZZI   3 1
M  ZZM   4 3
M  ZZI   4 121
M  ZZM   5 7
M  ZZI   5 81
M  ZZM   6 10
M  ZZI   6 212
M  ZZM   7 28
M  ZZI   7 11
M  ZZM   8 28
M  ZZI   8 11
M  ZZM   9 40
M  ZZI   9 193
M  ZZM  10 1
M  ZZI  10 113
M  ZZM  11 5
M  ZZI  11 1
M  ZZM  12 10
M  ZZI  12 211
M  ZZM  13 28
M  ZZI  13 11
M  ZZM  14 3
M  ZZI  14 121
M  ZZM  15 7
M  ZZI  15 81
M  ZZM  16 37
M  ZZI  16 124
M  ZZM  17 37
M  ZZI  17 125
M  ZZM  18 5
M  ZZI  18 1
M  ZZM  19 37
M  ZZI  19 125
M  ZZM  20 5
M  ZZI  20 1
M  ZZM  21 37
M  ZZI  21 125
M  ZZM  22 5
M  ZZI  22 1
M  ZZM  23 37
M  ZZI  23 125
M  ZZM  24 37
M  ZZI  24 124
M  ZZM  25 5
M  ZZI  25 1
M  ZZM  26 2
M  ZZI  26 120
M  ZZM  27 5
M  ZZI  27 1
M  ZZM  28 2
M  ZZI  28 120
M  ZZM  29 5
M  ZZI  29 1
M  ZZM  30 37
M  ZZI  30 124
M  ZZM  31 37
M  ZZI  31 124
M  ZZM  32 6
M  ZZI  32 59
M  ZZM  33 1
M  ZZI  33 111
M  ZZM  34 5
M  ZZI  34 1
M  ZZM  35 5
M  ZZI  35 1
M  ZZM  36 5
M  ZZI  36 1
M  ZZM  37 37
M  ZZI  37 125
M  ZZM  38 5
M  ZZI  38 1
M  ZZM  39 37
M  ZZI  39 125
M  ZZM  40 5
M  ZZI  40 1
M  ZZM  41 37
M  ZZI  41 125
M  ZZM  42 5
M  ZZI  42 1
M  ZZM  43 37
M  ZZI  43 125
M  ZZM  44 5
M  ZZI  44 1
M  END
> <NAME>
Z281062832

> <Score>
-29.520975

> <Natom>
44

> <Nflex>
3

> <Hbond>
-5.117943

> <Hphob>
-6.316853

> <VwInt>
-27.68037

> <Eintl>
6.435152

> <Dsolv>
13.813388

> <SolEl>
4.818245

> <mfScore>
-86.467654

> <RecConf>
1

> <molLogP>
2.471629

$$$$
Z929393616
  MOLSOFT 11211612053D

 44 45  0  0  0  0  0  0  0  0999 V2000
  -30.5349    7.8840   71.3228 O   0  0  0
  -30.5446    9.0141   70.7596 C   0  0  0
  -30.2739   10.1533   71.2295 O   0  5  0
  -30.9358    8.9899   69.2875 C   0  0  0
  -30.7561    9.9614   68.8188 H   0  0  0
  -30.2715    8.2764   68.7904 H   0  0  0
  -32.3921    8.5378   69.1530 C   0  0  0
  -32.5327    8.1478   68.1439 H   0  0  0
  -32.5950    7.7002   69.8267 H   0  0  0
  -33.4154    9.6424   69.4452 C   0  0  0
  -34.4291    9.2423   69.3586 H   0  0  0
  -33.3115    9.9896   70.4783 H   0  0  0
  -33.3006   10.7971   68.5541 N   0  0  0
  -32.9626   12.0711   69.1695 C   0  0  0
  -33.7483   12.3427   69.8802 H   0  0  0
  -32.8820   12.8599   68.4177 H   0  0  0
  -32.0111   11.9813   69.6984 H   0  0  0
  -33.4459   10.7446   67.1680 C   0  0  0
  -33.1874   11.6490   66.3878 O   0  0  0
  -33.9840    9.4737   66.5394 C   0  0  0
  -33.2584    8.9483   65.3354 C   0  0  0
  -32.6489    8.0927   65.6464 H   0  0  0
  -32.5945    9.7053   64.9079 H   0  0  0
  -34.3080    8.5351   64.3401 C   0  0  0
  -33.8450    8.0237   63.4894 H   0  0  0
  -34.8551    9.4089   63.9703 H   0  0  0
  -35.2932    7.6147   65.0010 C   0  0  0
  -35.8955    6.7858   64.3396 O   0  0  0
  -35.5207    7.8104   66.3568 N   0  0  0
  -35.0291    8.8925   67.0464 N   0  0  0
  -36.4365    6.9264   67.0697 C   0  0  0
  -37.2925    6.6991   66.4267 H   0  0  0
  -36.8255    7.4651   67.9341 H   0  0  0
  -35.8034    5.6331   67.5235 C   0  0  0
  -35.6326    4.5677   66.6446 C   0  0  0
  -35.9467    4.6494   65.6093 H   0  0  0
  -35.0758    3.3796   67.0722 C   0  0  0
  -34.9457    2.5511   66.3843 H   0  0  0
  -34.6973    3.2457   68.3875 C   0  0  0
  -34.1672    2.0870   68.8098 F   0  0  0
  -34.8567    4.2842   69.2766 C   0  0  0
  -34.5569    4.1585   70.3113 H   0  0  0
  -35.3977    5.4794   68.8437 C   0  0  0
  -35.5138    6.2934   69.5537 H   0  0  0
  2  1  2
  2  3  1
  2  4  1
  4  5  1
  4  6  1
  4  7  1
  7  8  1
  7  9  1
  7 10  1
 10 11  1
 10 12  1
 10 13  1
 13 14  1
 13 18  1
 14 15  1
 14 16  1
 14 17  1
 18 19  2
 18 20  1
 20 21  1
 20 30  2
 21 22  1
 21 23  1
 21 24  1
 24 25  1
 24 26  1
 24 27  1
 27 28  2
 27 29  1
 29 30  1
 29 31  1
 31 32  1
 31 33  1
 31 34  1
 34 35  2
 34 43  1
 35 36  1
 35 37  1
 37 38  1
 37 39  2
 39 40  1
 39 41  1
 41 42  1
 41 43  2
 43 44  1
M  ZZC   1 o1
M  ZZC   2 c5
M  ZZC   3 o2
M  ZZC   4 c4
M  ZZC   5 h11
M  ZZC   6 h12
M  ZZC   7 c3
M  ZZC   8 h13
M  ZZC   9 h14
M  ZZC  10 c2
M  ZZC  11 h15
M  ZZC  12 h16
M  ZZC  13 n1
M  ZZC  14 c1
M  ZZC  15 h17
M  ZZC  16 h18
M  ZZC  17 h19
M  ZZC  18 c6
M  ZZC  19 o3
M  ZZC  20 c7
M  ZZC  21 c10
M  ZZC  22 h7
M  ZZC  23 h8
M  ZZC  24 c9
M  ZZC  25 h10
M  ZZC  26 h9
M  ZZC  27 c8
M  ZZC  28 o4
M  ZZC  29 n3
M  ZZC  30 n2
M  ZZC  31 c11
M  ZZC  32 h5
M  ZZC  33 h6
M  ZZC  34 c12
M  ZZC  35 c13
M  ZZC  36 h4
M  ZZC  37 c14
M  ZZC  38 h3
M  ZZC  39 c15
M  ZZC  40 f1
M  ZZC  41 c16
M  ZZC  42 h2
M  ZZC  43 c17
M  ZZC  44 h1
M  ZZM   1 32
M  ZZI   1 71
M  ZZM   2 41
M  ZZI   2 127
M  ZZM   3 32
M  ZZI   3 71
M  ZZM   4 1
M  ZZI   4 112
M  ZZM   5 5
M  ZZI   5 1
M  ZZM   6 5
M  ZZI   6 1
M  ZZM   7 1
M  ZZI   7 112
M  ZZM   8 5
M  ZZI   8 1
M  ZZM   9 5
M  ZZI   9 1
M  ZZM  10 1
M  ZZI  10 112
M  ZZM  11 5
M  ZZI  11 1
M  ZZM  12 5
M  ZZI  12 1
M  ZZM  13 10
M  ZZI  13 192
M  ZZM  14 1
M  ZZI  14 111
M  ZZM  15 5
M  ZZI  15 1
M  ZZM  16 5
M  ZZI  16 1
M  ZZM  17 5
M  ZZI  17 1
M  ZZM  18 3
M  ZZI  18 121
M  ZZM  19 7
M  ZZI  19 81
M  ZZM  20 3
M  ZZI  20 121
M  ZZM  21 1
M  ZZI  21 112
M  ZZM  22 5
M  ZZI  22 1
M  ZZM  23 5
M  ZZI  23 1
M  ZZM  24 1
M  ZZI  24 112
M  ZZM  25 5
M  ZZI  25 1
M  ZZM  26 5
M  ZZI  26 1
M  ZZM  27 3
M  ZZI  27 121
M  ZZM  28 7
M  ZZI  28 81
M  ZZM  29 10
M  ZZI  29 192
M  ZZM  30 9
M  ZZI  30 220
M  ZZM  31 1
M  ZZI  31 112
M  ZZM  32 5
M  ZZI  32 1
M  ZZM  33 5
M  ZZI  33 1
M  ZZM  34 37
M  ZZI  34 124
M  ZZM  35 37
M  ZZI  35 125
M  ZZM  36 5
M  ZZI  36 1
M  ZZM  37 37
M  ZZI  37 125
M  ZZM  38 5
M  ZZI  38 1
M  ZZM  39 37
M  ZZI  39 124
M  ZZM  40 11
M  ZZI  40 90
M  ZZM  41 37
M  ZZI  41 125
M  ZZM  42 5
M  ZZI  42 1
M  ZZM  43 37
M  ZZI  43 125
M  ZZM  44 5
M  ZZI  44 1
M  CHG  1   3  -1
M  END
> <NAME>
Z929393616

> <Score>
-28.349941

> <Natom>
44

> <Nflex>
8

> <Hbond>
-4.542349

> <Hphob>
-6.511401

> <VwInt>
-26.089256

> <Eintl>
9.366315

> <Dsolv>
11.140893

> <SolEl>
0.664283

> <mfScore>
-94.320331

> <RecConf>
1

> <molLogP>
1.066911

$$$$
Z1362307562
  MOLSOFT 11211612053D

 44 46  0  0  0  0  0  0  0  0999 V2000
  -35.0425    4.3915   69.8747 H   0  0  0
  -35.1525    4.4976   68.7995 C   0  0  0
  -35.2893    5.7449   68.2055 C   0  0  0
  -35.2712    6.8892   68.9910 C   0  0  0
  -35.1541    6.8178   70.0687 H   0  0  0
  -35.4122    8.1348   68.4188 C   0  0  0
  -35.4110    9.0248   69.0411 H   0  0  0
  -35.5647    8.2443   67.0551 C   0  0  0
  -35.7110    9.2270   66.6203 H   0  0  0
  -35.5370    7.1042   66.2639 C   0  0  0
  -35.4322    5.8301   66.8197 C   0  0  0
  -35.4402    4.7315   66.0382 N   0  0  0
  -35.2904    3.5476   66.6425 C   0  0  0
  -35.2887    2.6882   65.9807 H   0  0  0
  -35.1482    3.3767   67.9992 C   0  0  0
  -35.0374    2.3838   68.4222 H   0  0  0
  -35.6337    7.2050   64.8707 O   0  0  0
  -34.6301    8.0933   64.3401 C   0  0  0
  -34.8853    8.2749   63.2930 H   0  0  0
  -34.6806    9.0688   64.8236 H   0  0  0
  -33.2389    7.4592   64.3888 C   0  0  0
  -33.0791    6.9328   63.4431 H   0  0  0
  -33.1786    6.6965   65.1656 H   0  0  0
  -32.1184    8.4731   64.5875 C   0  0  0
  -31.1532    7.9980   64.3894 H   0  0  0
  -32.2244    9.3111   63.8913 H   0  0  0
  -32.0639    8.9644   65.9560 N   0  0  0
  -31.6066    8.3902   66.6607 H   0  0  0
  -32.5908   10.1874   66.3104 C   0  0  0
  -33.1367   10.9406   65.5223 O   0  0  0
  -32.4689   10.5653   67.7414 C   0  0  0
  -31.6411    9.8641   68.7477 C   0  0  0
  -31.0287    8.8502   68.4435 O   0  0  0
  -31.6117   10.4276   70.0103 N   0  0  0
  -30.7533    9.7940   70.9960 C   0  0  0
  -31.1390    8.7921   71.2085 H   0  0  0
  -30.7054   10.3703   71.9237 H   0  0  0
  -29.7460    9.6921   70.5811 H   0  0  0
  -32.3498   11.5300   70.3911 C   0  0  0
  -32.3454   11.9998   71.5171 O   0  0  0
  -33.1221   12.0879   69.4154 N   0  0  0
  -33.6732   12.8992   69.6721 H   0  0  0
  -33.1670   11.6360   68.1340 C   0  0  0
  -33.8061   12.2107   67.4682 H   0  0  0
  2  1  1
  2  3  1
  2 15  2
  3  4  1
  3 11  2
  4  5  1
  4  6  2
  6  7  1
  6  8  1
  8  9  1
  8 10  2
 10 11  1
 10 17  1
 11 12  1
 12 13  2
 13 14  1
 13 15  1
 15 16  1
 17 18  1
 18 19  1
 18 20  1
 18 21  1
 21 22  1
 21 23  1
 21 24  1
 24 25  1
 24 26  1
 24 27  1
 27 28  1
 27 29  1
 29 30  2
 29 31  1
 31 32  1
 31 43  2
 32 33  2
 32 34  1
 34 35  1
 34 39  1
 35 36  1
 35 37  1
 35 38  1
 39 40  2
 39 41  1
 41 42  1
 41 43  1
 43 44  1
M  ZZC   1 h1
M  ZZC   2 c18
M  ZZC   3 c14
M  ZZC   4 c13
M  ZZC   5 h4
M  ZZC   6 c12
M  ZZC   7 h5
M  ZZC   8 c11
M  ZZC   9 h6
M  ZZC  10 c10
M  ZZC  11 c15
M  ZZC  12 n4
M  ZZC  13 c16
M  ZZC  14 h3
M  ZZC  15 c17
M  ZZC  16 h2
M  ZZC  17 o4
M  ZZC  18 c9
M  ZZC  19 h7
M  ZZC  20 h8
M  ZZC  21 c8
M  ZZC  22 h10
M  ZZC  23 h9
M  ZZC  24 c7
M  ZZC  25 h11
M  ZZC  26 h12
M  ZZC  27 n3
M  ZZC  28 h13
M  ZZC  29 c6
M  ZZC  30 o3
M  ZZC  31 c3
M  ZZC  32 c2
M  ZZC  33 o1
M  ZZC  34 n1
M  ZZC  35 c1
M  ZZC  36 h15
M  ZZC  37 h16
M  ZZC  38 h17
M  ZZC  39 c5
M  ZZC  40 o2
M  ZZC  41 n2
M  ZZC  42 h18
M  ZZC  43 c4
M  ZZC  44 h14
M  ZZM   1 5
M  ZZI   1 1
M  ZZM   2 37
M  ZZI   2 125
M  ZZM   3 37
M  ZZI   3 124
M  ZZM   4 37
M  ZZI   4 125
M  ZZM   5 5
M  ZZI   5 1
M  ZZM   6 37
M  ZZI   6 125
M  ZZM   7 5
M  ZZI   7 1
M  ZZM   8 37
M  ZZI   8 125
M  ZZM   9 5
M  ZZI   9 1
M  ZZM  10 37
M  ZZI  10 124
M  ZZM  11 37
M  ZZI  11 124
M  ZZM  12 38
M  ZZI  12 223
M  ZZM  13 37
M  ZZI  13 125
M  ZZM  14 5
M  ZZI  14 1
M  ZZM  15 37
M  ZZI  15 125
M  ZZM  16 5
M  ZZI  16 1
M  ZZM  17 6
M  ZZI  17 59
M  ZZM  18 1
M  ZZI  18 112
M  ZZM  19 5
M  ZZI  19 1
M  ZZM  20 5
M  ZZI  20 1
M  ZZM  21 1
M  ZZI  21 112
M  ZZM  22 5
M  ZZI  22 1
M  ZZM  23 5
M  ZZI  23 1
M  ZZM  24 1
M  ZZI  24 112
M  ZZM  25 5
M  ZZI  25 1
M  ZZM  26 5
M  ZZI  26 1
M  ZZM  27 10
M  ZZI  27 211
M  ZZM  28 28
M  ZZI  28 11
M  ZZM  29 3
M  ZZI  29 121
M  ZZM  30 7
M  ZZI  30 81
M  ZZM  31 2
M  ZZI  31 120
M  ZZM  32 3
M  ZZI  32 121
M  ZZM  33 7
M  ZZI  33 81
M  ZZM  34 10
M  ZZI  34 192
M  ZZM  35 1
M  ZZI  35 111
M  ZZM  36 5
M  ZZI  36 1
M  ZZM  37 5
M  ZZI  37 1
M  ZZM  38 5
M  ZZI  38 1
M  ZZM  39 3
M  ZZI  39 121
M  ZZM  40 7
M  ZZI  40 81
M  ZZM  41 10
M  ZZI  41 191
M  ZZM  42 28
M  ZZI  42 11
M  ZZM  43 2
M  ZZI  43 120
M  ZZM  44 5
M  ZZI  44 1
M  END
> <NAME>
Z1362307562

> <Score>
-28.094048

> <Natom>
44

> <Nflex>
4

> <Hbond>
-2.857806

> <Hphob>
-6.415712

> <VwInt>
-33.38777

> <Eintl>
9.542022

> <Dsolv>
12.51272

> <SolEl>
7.63327

> <mfScore>
-95.576642

> <RecConf>
1

> <molLogP>
1.046163

$$$$
Z134026986
  MOLSOFT 11211612053D

 44 45  0  0  1  0  0  0  0  0999 V2000
  -33.0757   12.9256   67.8294 Cl  0  0  0
  -33.6929   11.4195   68.3850 C   0  0  0
  -33.5430   11.0236   69.7082 C   0  0  0
  -32.8445   11.8912   70.7168 C   0  0  0
  -31.8062   12.0740   70.4258 H   0  0  0
  -32.8263   11.4048   71.6963 H   0  0  0
  -33.3388   12.8640   70.8004 H   0  0  0
  -34.0585    9.7935   70.0924 C   0  0  0
  -33.9425    9.4781   71.1229 H   0  0  0
  -34.7141    8.9818   69.1764 C   0  0  0
  -34.8623    9.4083   67.8643 C   0  0  0
  -34.3433   10.6276   67.4663 C   0  0  0
  -34.4300   10.9812   66.4467 H   0  0  0
  -35.5423    8.5421   67.0039 O   0  0  0
  -35.7381    9.0509   65.6804 C   0  0  0
  -36.3121    9.9744   65.7583 H   0  0  0
  -36.3162    8.3548   65.0638 H   0  0  0
  -34.7848    9.3135   65.2171 H   0  0  0
  -35.2511    7.7151   69.5103 N   0  0  0
  -35.7062    7.2235   68.7454 H   0  0  0
  -35.1980    7.0904   70.7457 C   0  0  0
  -34.6823    7.5390   71.7600 O   0  0  0
  -35.8586    5.7211   70.7419 C   0  0  1
  -35.1022    5.0120   71.0808 H   0  0  0
  -37.0559    5.7059   71.6823 C   0  0  0
  -37.5173    4.7139   71.6989 H   0  0  0
  -37.8283    6.4044   71.3460 H   0  0  0
  -36.7724    5.9802   72.7026 H   0  0  0
  -36.3399    5.4338   69.4122 O   0  0  0
  -35.6607    4.4135   68.7363 C   0  0  0
  -35.0370    3.3554   69.3897 C   0  0  0
  -35.0878    3.2283   70.4646 H   0  0  0
  -34.3516    2.4032   68.6637 C   0  0  0
  -33.8598    1.5804   69.1733 H   0  0  0
  -34.2921    2.4873   67.2906 C   0  0  0
  -33.7468    1.7377   66.7283 H   0  0  0
  -34.9432    3.5062   66.6285 C   0  0  0
  -34.9062    3.5344   65.5462 H   0  0  0
  -35.6464    4.4643   67.3433 C   0  0  0
  -36.3626    5.5228   66.5745 C   0  0  0
  -36.1408    5.7012   65.3871 O   0  0  0
  -37.2995    6.2532   67.2540 N   0  0  0
  -37.8043    6.9834   66.7632 H   0  0  0
  -37.5920    6.0537   68.2037 H   0  0  0
  2  1  1
  2  3  1
  2 12  2
  3  4  1
  3  8  2
  4  5  1
  4  6  1
  4  7  1
  8  9  1
  8 10  1
 10 11  2
 10 19  1
 11 12  1
 11 14  1
 12 13  1
 14 15  1
 15 16  1
 15 17  1
 15 18  1
 19 20  1
 19 21  1
 21 22  2
 23 21  1
 23 24  1
 23 25  1
 23 29  1
 25 26  1
 25 27  1
 25 28  1
 29 30  1
 30 31  2
 30 39  1
 31 32  1
 31 33  1
 33 34  1
 33 35  2
 35 36  1
 35 37  1
 37 38  1
 37 39  2
 39 40  1
 40 41  2
 40 42  1
 42 43  1
 42 44  1
M  ZZC   1 &Cl1
M  ZZC   2 c7
M  ZZC   3 c2
M  ZZC   4 c1
M  ZZC   5 h16
M  ZZC   6 h17
M  ZZC   7 h18
M  ZZC   8 c3
M  ZZC   9 h15
M  ZZC  10 c4
M  ZZC  11 c5
M  ZZC  12 c6
M  ZZC  13 h14
M  ZZC  14 o1
M  ZZC  15 c8
M  ZZC  16 h11
M  ZZC  17 h12
M  ZZC  18 h13
M  ZZC  19 n1
M  ZZC  20 h10
M  ZZC  21 c9
M  ZZC  22 o2
M  ZZC  23 c10
M  ZZC  24 h19
M  ZZC  25 c11
M  ZZC  26 h7
M  ZZC  27 h8
M  ZZC  28 h9
M  ZZC  29 o3
M  ZZC  30 c12
M  ZZC  31 c13
M  ZZC  32 h6
M  ZZC  33 c14
M  ZZC  34 h5
M  ZZC  35 c15
M  ZZC  36 h4
M  ZZC  37 c16
M  ZZC  38 h3
M  ZZC  39 c17
M  ZZC  40 c18
M  ZZC  41 o4
M  ZZC  42 n2
M  ZZC  43 h1
M  ZZC  44 h2
M  ZZM   1 12
M  ZZI   1 92
M  ZZM   2 37
M  ZZI   2 124
M  ZZM   3 37
M  ZZI   3 124
M  ZZM   4 1
M  ZZI   4 111
M  ZZM   5 5
M  ZZI   5 1
M  ZZM   6 5
M  ZZI   6 1
M  ZZM   7 5
M  ZZI   7 1
M  ZZM   8 37
M  ZZI   8 125
M  ZZM   9 5
M  ZZI   9 1
M  ZZM  10 37
M  ZZI  10 124
M  ZZM  11 37
M  ZZI  11 124
M  ZZM  12 37
M  ZZI  12 125
M  ZZM  13 5
M  ZZI  13 1
M  ZZM  14 6
M  ZZI  14 59
M  ZZM  15 1
M  ZZI  15 111
M  ZZM  16 5
M  ZZI  16 1
M  ZZM  17 5
M  ZZI  17 1
M  ZZM  18 5
M  ZZI  18 1
M  ZZM  19 10
M  ZZI  19 191
M  ZZM  20 28
M  ZZI  20 11
M  ZZM  21 3
M  ZZI  21 121
M  ZZM  22 7
M  ZZI  22 81
M  ZZM  23 1
M  ZZI  23 113
M  ZZM  24 5
M  ZZI  24 1
M  ZZM  25 1
M  ZZI  25 111
M  ZZM  26 5
M  ZZI  26 1
M  ZZM  27 5
M  ZZI  27 1
M  ZZM  28 5
M  ZZI  28 1
M  ZZM  29 6
M  ZZI  29 59
M  ZZM  30 37
M  ZZI  30 124
M  ZZM  31 37
M  ZZI  31 125
M  ZZM  32 5
M  ZZI  32 1
M  ZZM  33 37
M  ZZI  33 125
M  ZZM  34 5
M  ZZI  34 1
M  ZZM  35 37
M  ZZI  35 125
M  ZZM  36 5
M  ZZI  36 1
M  ZZM  37 37
M  ZZI  37 125
M  ZZM  38 5
M  ZZI  38 1
M  ZZM  39 37
M  ZZI  39 124
M  ZZM  40 3
M  ZZI  40 121
M  ZZM  41 7
M  ZZI  41 81
M  ZZM  42 10
M  ZZI  42 212
M  ZZM  43 28
M  ZZI  43 11
M  ZZM  44 28
M  ZZI  44 11
M  END
> <NAME>
Z134026986

> <Score>
-28.060956

> <Natom>
44

> <Nflex>
2

> <Hbond>
-2.602156

> <Hphob>
-6.650091

> <VwInt>
-28.734601

> <Eintl>
8.571538

> <Dsolv>
9.497848

> <SolEl>
5.135266

> <mfScore>
-55.773544

> <RecConf>
1

> <molLogP>
2.744851

$$$$
Z30930745
  MOLSOFT 11211612053D

 44 45  0  0  1  0  0  0  0  0999 V2000
  -33.5662    1.0132   68.5394 O   0  0  0
  -34.5330    1.5936   69.4472 S   0  0  0
  -34.2344    1.8212   70.8460 O   0  0  0
  -35.9595    0.7042   69.3540 N   0  0  0
  -36.5211    0.8873   68.5169 H   0  0  0
  -36.5078    0.7140   70.2206 H   0  0  0
  -35.0695    3.1564   68.7358 C   0  0  0
  -35.4834    4.1714   69.5814 C   0  0  0
  -35.5084    4.0379   70.6591 H   0  0  0
  -35.8693    5.3781   69.0404 C   0  0  0
  -36.1845    6.1762   69.7063 H   0  0  0
  -35.8372    5.5768   67.6670 C   0  0  0
  -35.4169    4.5445   66.8363 C   0  0  0
  -35.3782    4.6886   65.7603 H   0  0  0
  -35.0238    3.3330   67.3634 C   0  0  0
  -34.6871    2.5420   66.6990 H   0  0  0
  -36.1902    6.9175   67.0902 C   0  0  0
  -36.6977    7.5334   67.8336 H   0  0  0
  -36.8627    6.8010   66.2344 H   0  0  0
  -34.9867    7.6167   66.7079 N   0  0  0
  -34.3804    7.9593   67.4446 H   0  0  0
  -34.5946    7.7188   65.3918 C   0  0  0
  -35.2884    7.3507   64.4534 O   0  0  0
  -33.1753    8.2522   65.2326 C   0  0  1
  -32.5216    7.5581   65.7637 H   0  0  0
  -32.7754    8.2713   63.7669 C   0  0  0
  -32.7984    7.2662   63.3355 H   0  0  0
  -31.7717    8.6874   63.6385 H   0  0  0
  -33.4610    8.8940   63.1904 H   0  0  0
  -33.0800    9.6000   65.7562 O   0  0  0
  -32.4208    9.6812   66.9896 C   0  0  0
  -32.9035   10.6048   67.9119 C   0  0  0
  -34.0715   11.4861   67.5885 C   0  0  0
  -34.3056   12.1362   68.4355 H   0  0  0
  -34.9645   10.8917   67.3747 H   0  0  0
  -33.8530   12.0953   66.7071 H   0  0  0
  -32.2971   10.6955   69.1566 C   0  0  0
  -32.6613   11.4081   69.8913 H   0  0  0
  -31.2228    9.8859   69.4672 C   0  0  0
  -30.4832   10.0057   71.0230 Cl  0  0  0
  -30.7241    8.9937   68.5417 C   0  0  0
  -29.8685    8.3709   68.7838 H   0  0  0
  -31.3105    8.9024   67.2945 C   0  0  0
  -30.8671    8.2309   66.5674 H   0  0  0
  2  1  2
  2  3  2
  2  4  1
  2  7  1
  4  5  1
  4  6  1
  7  8  2
  7 15  1
  8  9  1
  8 10  1
 10 11  1
 10 12  2
 12 13  1
 12 17  1
 13 14  1
 13 15  2
 15 16  1
 17 18  1
 17 19  1
 17 20  1
 20 21  1
 20 22  1
 22 23  2
 24 22  1
 24 25  1
 24 26  1
 24 30  1
 26 27  1
 26 28  1
 26 29  1
 30 31  1
 31 32  2
 31 43  1
 32 33  1
 32 37  1
 33 34  1
 33 35  1
 33 36  1
 37 38  1
 37 39  2
 39 40  1
 39 41  1
 41 42  1
 41 43  2
 43 44  1
M  ZZC   1 o3
M  ZZC   2 s1
M  ZZC   3 o4
M  ZZC   4 n2
M  ZZC   5 h1
M  ZZC   6 h2
M  ZZC   7 c15
M  ZZC   8 c14
M  ZZC   9 h5
M  ZZC  10 c13
M  ZZC  11 h6
M  ZZC  12 c12
M  ZZC  13 c17
M  ZZC  14 h3
M  ZZC  15 c16
M  ZZC  16 h4
M  ZZC  17 c11
M  ZZC  18 h7
M  ZZC  19 h8
M  ZZC  20 n1
M  ZZC  21 h9
M  ZZC  22 c10
M  ZZC  23 o2
M  ZZC  24 c8
M  ZZC  25 h19
M  ZZC  26 c9
M  ZZC  27 h10
M  ZZC  28 h11
M  ZZC  29 h12
M  ZZC  30 o1
M  ZZC  31 c7
M  ZZC  32 c2
M  ZZC  33 c1
M  ZZC  34 h16
M  ZZC  35 h17
M  ZZC  36 h18
M  ZZC  37 c3
M  ZZC  38 h15
M  ZZC  39 c4
M  ZZC  40 &Cl1
M  ZZC  41 c5
M  ZZC  42 h14
M  ZZC  43 c6
M  ZZC  44 h13
M  ZZM   1 32
M  ZZI   1 73
M  ZZM   2 18
M  ZZI   2 250
M  ZZM   3 32
M  ZZI   3 73
M  ZZM   4 43
M  ZZI   4 226
M  ZZM   5 28
M  ZZI   5 11
M  ZZM   6 28
M  ZZI   6 11
M  ZZM   7 37
M  ZZI   7 124
M  ZZM   8 37
M  ZZI   8 125
M  ZZM   9 5
M  ZZI   9 1
M  ZZM  10 37
M  ZZI  10 125
M  ZZM  11 5
M  ZZI  11 1
M  ZZM  12 37
M  ZZI  12 124
M  ZZM  13 37
M  ZZI  13 125
M  ZZM  14 5
M  ZZI  14 1
M  ZZM  15 37
M  ZZI  15 125
M  ZZM  16 5
M  ZZI  16 1
M  ZZM  17 1
M  ZZI  17 112
M  ZZM  18 5
M  ZZI  18 1
M  ZZM  19 5
M  ZZI  19 1
M  ZZM  20 10
M  ZZI  20 211
M  ZZM  21 28
M  ZZI  21 11
M  ZZM  22 3
M  ZZI  22 121
M  ZZM  23 7
M  ZZI  23 81
M  ZZM  24 1
M  ZZI  24 113
M  ZZM  25 5
M  ZZI  25 1
M  ZZM  26 1
M  ZZI  26 111
M  ZZM  27 5
M  ZZI  27 1
M  ZZM  28 5
M  ZZI  28 1
M  ZZM  29 5
M  ZZI  29 1
M  ZZM  30 6
M  ZZI  30 59
M  ZZM  31 37
M  ZZI  31 124
M  ZZM  32 37
M  ZZI  32 124
M  ZZM  33 1
M  ZZI  33 111
M  ZZM  34 5
M  ZZI  34 1
M  ZZM  35 5
M  ZZI  35 1
M  ZZM  36 5
M  ZZI  36 1
M  ZZM  37 37
M  ZZI  37 125
M  ZZM  38 5
M  ZZI  38 1
M  ZZM  39 37
M  ZZI  39 124
M  ZZM  40 12
M  ZZI  40 92
M  ZZM  41 37
M  ZZI  41 125
M  ZZM  42 5
M  ZZI  42 1
M  ZZM  43 37
M  ZZI  43 125
M  ZZM  44 5
M  ZZI  44 1
M  END
> <NAME>
Z30930745

> <Score>
-27.457872

> <Natom>
44

> <Nflex>
6

> <Hbond>
-4.394799

> <Hphob>
-6.436245

> <VwInt>
-30.817447

> <Eintl>
9.659989

> <Dsolv>
13.121879

> <SolEl>
8.104987

> <mfScore>
-91.003733

> <RecConf>
1

> <molLogP>
2.739254

$$$$
Z605811036
  MOLSOFT 11211612053D

 44 46  0  0  1  0  0  0  0  0999 V2000
  -32.1654   12.3651   67.4764 H   0  0  0
  -32.8982   11.6415   67.8153 C   0  0  0
  -33.4512   10.7416   66.9269 C   0  0  0
  -34.4246    9.8338   67.3259 C   0  0  0
  -34.7575    9.8014   68.6749 C   0  0  0
  -35.4954    9.0943   69.0398 H   0  0  0
  -34.1457   10.6474   69.5779 C   0  0  0
  -34.3843   10.5760   70.6341 H   0  0  0
  -33.2389   11.5907   69.1479 C   0  0  0
  -32.7786   12.2743   69.8545 H   0  0  0
  -35.0851    8.8897   66.3556 C   0  0  1
  -36.1706    9.0467   66.3672 H   0  0  0
  -34.5809    9.1426   64.9412 C   0  0  0
  -35.1433    9.9772   64.5092 H   0  0  0
  -34.7263    8.2774   64.2876 H   0  0  0
  -33.1209    9.5247   64.9875 C   0  0  0
  -32.7345    9.6238   63.9690 H   0  0  0
  -32.5024    8.7722   65.4919 H   0  0  0
  -32.9728   10.7984   65.6247 O   0  0  0
  -34.8555    7.5249   66.7893 N   0  0  0
  -34.2037    7.3723   67.5516 H   0  0  0
  -35.5147    6.4395   66.2527 C   0  0  0
  -36.2114    6.4478   65.2485 O   0  0  0
  -35.3276    5.1963   67.0286 C   0  0  0
  -34.9716    4.0253   66.3909 C   0  0  0
  -34.8113    4.0037   65.3229 H   0  0  0
  -34.7978    2.8774   67.1307 C   0  0  0
  -34.4948    1.9612   66.6370 H   0  0  0
  -35.0325    2.8843   68.4910 C   0  0  0
  -34.9167    1.9536   69.0337 H   0  0  0
  -35.4361    4.0528   69.1229 C   0  0  0
  -35.5566    5.2185   68.3928 C   0  0  0
  -35.8833    6.1326   68.8793 H   0  0  0
  -35.7954    4.1184   70.4859 N   0  0  0
  -36.0984    5.0229   70.8282 H   0  0  0
  -35.8583    3.0450   71.3541 C   0  0  0
  -35.4266    1.9193   71.1545 O   0  0  0
  -36.5503    3.4041   72.6458 C   0  0  0
  -36.5025    2.5364   73.3086 H   0  0  0
  -36.0081    4.2268   73.1233 H   0  0  0
  -38.0024    3.7904   72.4027 C   0  0  0
  -38.4916    4.0785   73.3329 H   0  0  0
  -38.5562    2.9487   71.9839 H   0  0  0
  -38.0980    4.6276   71.7055 H   0  0  0
  2  1  1
  2  3  1
  2  9  2
  3  4  2
  3 19  1
  4  5  1
 11  4  1
  5  6  1
  5  7  2
  7  8  1
  7  9  1
  9 10  1
 11 12  1
 11 13  1
 11 20  1
 13 14  1
 13 15  1
 13 16  1
 16 17  1
 16 18  1
 16 19  1
 20 21  1
 20 22  1
 22 23  2
 22 24  1
 24 25  2
 24 32  1
 25 26  1
 25 27  1
 27 28  1
 27 29  2
 29 30  1
 29 31  1
 31 32  2
 31 34  1
 32 33  1
 34 35  1
 34 36  1
 36 37  2
 36 38  1
 38 39  1
 38 40  1
 38 41  1
 41 42  1
 41 43  1
 41 44  1
M  ZZC   1 h1
M  ZZC   2 c19
M  ZZC   3 c14
M  ZZC   4 c15
M  ZZC   5 c16
M  ZZC   6 h4
M  ZZC   7 c17
M  ZZC   8 h3
M  ZZC   9 c18
M  ZZC  10 h2
M  ZZC  11 c11
M  ZZC  12 h20
M  ZZC  13 c12
M  ZZC  14 h7
M  ZZC  15 h8
M  ZZC  16 c13
M  ZZC  17 h5
M  ZZC  18 h6
M  ZZC  19 o3
M  ZZC  20 n2
M  ZZC  21 h9
M  ZZC  22 c10
M  ZZC  23 o2
M  ZZC  24 c8
M  ZZC  25 c7
M  ZZC  26 h11
M  ZZC  27 c6
M  ZZC  28 h12
M  ZZC  29 c5
M  ZZC  30 h13
M  ZZC  31 c4
M  ZZC  32 c9
M  ZZC  33 h10
M  ZZC  34 n1
M  ZZC  35 h14
M  ZZC  36 c3
M  ZZC  37 o1
M  ZZC  38 c2
M  ZZC  39 h15
M  ZZC  40 h16
M  ZZC  41 c1
M  ZZC  42 h17
M  ZZC  43 h18
M  ZZC  44 h19
M  ZZM   1 5
M  ZZI   1 1
M  ZZM   2 37
M  ZZI   2 125
M  ZZM   3 37
M  ZZI   3 124
M  ZZM   4 37
M  ZZI   4 124
M  ZZM   5 37
M  ZZI   5 125
M  ZZM   6 5
M  ZZI   6 1
M  ZZM   7 37
M  ZZI   7 125
M  ZZM   8 5
M  ZZI   8 1
M  ZZM   9 37
M  ZZI   9 125
M  ZZM  10 5
M  ZZI  10 1
M  ZZM  11 1
M  ZZI  11 113
M  ZZM  12 5
M  ZZI  12 1
M  ZZM  13 1
M  ZZI  13 112
M  ZZM  14 5
M  ZZI  14 1
M  ZZM  15 5
M  ZZI  15 1
M  ZZM  16 1
M  ZZI  16 112
M  ZZM  17 5
M  ZZI  17 1
M  ZZM  18 5
M  ZZI  18 1
M  ZZM  19 6
M  ZZI  19 59
M  ZZM  20 10
M  ZZI  20 211
M  ZZM  21 28
M  ZZI  21 11
M  ZZM  22 3
M  ZZI  22 121
M  ZZM  23 7
M  ZZI  23 81
M  ZZM  24 37
M  ZZI  24 124
M  ZZM  25 37
M  ZZI  25 125
M  ZZM  26 5
M  ZZI  26 1
M  ZZM  27 37
M  ZZI  27 125
M  ZZM  28 5
M  ZZI  28 1
M  ZZM  29 37
M  ZZI  29 125
M  ZZM  30 5
M  ZZI  30 1
M  ZZM  31 37
M  ZZI  31 124
M  ZZM  32 37
M  ZZI  32 125
M  ZZM  33 5
M  ZZI  33 1
M  ZZM  34 10
M  ZZI  34 191
M  ZZM  35 28
M  ZZI  35 11
M  ZZM  36 3
M  ZZI  36 121
M  ZZM  37 7
M  ZZI  37 81
M  ZZM  38 1
M  ZZI  38 112
M  ZZM  39 5
M  ZZI  39 1
M  ZZM  40 5
M  ZZI  40 1
M  ZZM  41 1
M  ZZI  41 111
M  ZZM  42 5
M  ZZI  42 1
M  ZZM  43 5
M  ZZI  43 1
M  ZZM  44 5
M  ZZI  44 1
M  END
> <NAME>
Z605811036

> <Score>
-27.37765

> <Natom>
44

> <Nflex>
2

> <Hbond>
-3.141163

> <Hphob>
-6.917254

> <VwInt>
-26.405027

> <Eintl>
8.145079

> <Dsolv>
9.852879

> <SolEl>
4.57488

> <mfScore>
-96.092272

> <RecConf>
1

> <molLogP>
3.175927

$$$$
Z381195346
  MOLSOFT 11211612053D

 44 46  0  0  0  0  0  0  0  0999 V2000
  -32.5708   11.4809   66.2052 O   0  0  0
  -33.1979   11.6690   67.4989 S   0  0  0
  -33.2834   12.9791   68.1048 O   0  0  0
  -32.3606   10.6085   68.6860 C   0  0  0
  -32.5448   10.8512   70.0386 C   0  0  0
  -33.1894   11.6538   70.3859 H   0  0  0
  -31.9056   10.0469   70.9592 C   0  0  0
  -32.0847   10.2289   72.0125 H   0  0  0
  -31.0759    9.0238   70.5134 C   0  0  0
  -30.8665    8.8278   69.1627 C   0  0  0
  -30.1874    8.0518   68.8309 H   0  0  0
  -31.5101    9.6144   68.2334 C   0  0  0
  -31.3460    9.4391   67.1740 H   0  0  0
  -30.4354    8.1094   71.3514 O   0  0  0
  -30.3751    8.5297   72.7192 C   0  0  0
  -31.3663    8.4916   73.1825 H   0  0  0
  -29.7360    7.8255   73.2572 H   0  0  0
  -29.9272    9.5252   72.8092 H   0  0  0
  -34.7738   11.0110   67.4616 N   0  0  0
  -35.3924   11.3569   68.2015 H   0  0  0
  -34.8828    9.6292   67.0837 C   0  0  0
  -34.5800    9.2384   65.7929 C   0  0  0
  -34.3352    9.9789   65.0377 H   0  0  0
  -34.5810    7.8964   65.4724 C   0  0  0
  -34.1686    7.4212   63.8616 Cl  0  0  0
  -34.9073    6.9468   66.4283 C   0  0  0
  -35.1930    7.3497   67.7285 C   0  0  0
  -35.3874    6.6381   68.5209 H   0  0  0
  -35.1832    8.6916   68.0503 C   0  0  0
  -35.3784    9.0009   69.0723 H   0  0  0
  -34.8727    5.6066   66.0339 O   0  0  0
  -35.8551    4.7926   66.6873 C   0  0  0
  -36.3952    4.2534   65.9034 H   0  0  0
  -36.6025    5.4000   67.2062 H   0  0  0
  -35.2120    3.7814   67.5955 C   0  0  0
  -34.3684    2.8019   67.0963 C   0  0  0
  -34.1294    2.7518   66.0378 H   0  0  0
  -33.8396    1.8783   67.9743 C   0  0  0
  -33.1781    1.0969   67.6221 H   0  0  0
  -34.1631    1.9619   69.3106 C   0  0  0
  -33.7640    1.2452   70.0211 H   0  0  0
  -34.9645    2.8950   69.8330 N   0  0  0
  -35.4680    3.7729   68.9582 C   0  0  0
  -36.1297    4.5088   69.4046 H   0  0  0
  2  1  2
  2  3  2
  2  4  1
  2 19  1
  4  5  2
  4 12  1
  5  6  1
  5  7  1
  7  8  1
  7  9  2
  9 10  1
  9 14  1
 10 11  1
 10 12  2
 12 13  1
 14 15  1
 15 16  1
 15 17  1
 15 18  1
 19 20  1
 19 21  1
 21 22  1
 21 29  2
 22 23  1
 22 24  2
 24 25  1
 24 26  1
 26 27  2
 26 31  1
 27 28  1
 27 29  1
 29 30  1
 31 32  1
 32 33  1
 32 34  1
 32 35  1
 35 36  2
 35 43  1
 36 37  1
 36 38  1
 38 39  1
 38 40  2
 40 41  1
 40 42  1
 42 43  2
 43 44  1
M  ZZC   1 o2
M  ZZC   2 s1
M  ZZC   3 o3
M  ZZC   4 c5
M  ZZC   5 c4
M  ZZC   6 h13
M  ZZC   7 c3
M  ZZC   8 h14
M  ZZC   9 c2
M  ZZC  10 c7
M  ZZC  11 h11
M  ZZC  12 c6
M  ZZC  13 h12
M  ZZC  14 o1
M  ZZC  15 c1
M  ZZC  16 h15
M  ZZC  17 h16
M  ZZC  18 h17
M  ZZC  19 n1
M  ZZC  20 h10
M  ZZC  21 c8
M  ZZC  22 c13
M  ZZC  23 h7
M  ZZC  24 c12
M  ZZC  25 &Cl1
M  ZZC  26 c11
M  ZZC  27 c10
M  ZZC  28 h8
M  ZZC  29 c9
M  ZZC  30 h9
M  ZZC  31 o4
M  ZZC  32 c14
M  ZZC  33 h5
M  ZZC  34 h6
M  ZZC  35 c15
M  ZZC  36 c16
M  ZZC  37 h4
M  ZZC  38 c17
M  ZZC  39 h3
M  ZZC  40 c18
M  ZZC  41 h2
M  ZZC  42 n2
M  ZZC  43 c19
M  ZZC  44 h1
M  ZZM   1 32
M  ZZI   1 73
M  ZZM   2 18
M  ZZI   2 250
M  ZZM   3 32
M  ZZI   3 73
M  ZZM   4 37
M  ZZI   4 124
M  ZZM   5 37
M  ZZI   5 125
M  ZZM   6 5
M  ZZI   6 1
M  ZZM   7 37
M  ZZI   7 125
M  ZZM   8 5
M  ZZI   8 1
M  ZZM   9 37
M  ZZI   9 124
M  ZZM  10 37
M  ZZI  10 125
M  ZZM  11 5
M  ZZI  11 1
M  ZZM  12 37
M  ZZI  12 125
M  ZZM  13 5
M  ZZI  13 1
M  ZZM  14 6
M  ZZI  14 59
M  ZZM  15 1
M  ZZI  15 111
M  ZZM  16 5
M  ZZI  16 1
M  ZZM  17 5
M  ZZI  17 1
M  ZZM  18 5
M  ZZI  18 1
M  ZZM  19 43
M  ZZI  19 196
M  ZZM  20 28
M  ZZI  20 11
M  ZZM  21 37
M  ZZI  21 124
M  ZZM  22 37
M  ZZI  22 125
M  ZZM  23 5
M  ZZI  23 1
M  ZZM  24 37
M  ZZI  24 124
M  ZZM  25 12
M  ZZI  25 92
M  ZZM  26 37
M  ZZI  26 124
M  ZZM  27 37
M  ZZI  27 125
M  ZZM  28 5
M  ZZI  28 1
M  ZZM  29 37
M  ZZI  29 125
M  ZZM  30 5
M  ZZI  30 1
M  ZZM  31 6
M  ZZI  31 59
M  ZZM  32 1
M  ZZI  32 112
M  ZZM  33 5
M  ZZI  33 1
M  ZZM  34 5
M  ZZI  34 1
M  ZZM  35 37
M  ZZI  35 124
M  ZZM  36 37
M  ZZI  36 125
M  ZZM  37 5
M  ZZI  37 1
M  ZZM  38 37
M  ZZI  38 125
M  ZZM  39 5
M  ZZI  39 1
M  ZZM  40 37
M  ZZI  40 125
M  ZZM  41 5
M  ZZI  41 1
M  ZZM  42 38
M  ZZI  42 223
M  ZZM  43 37
M  ZZI  43 125
M  ZZM  44 5
M  ZZI  44 1
M  END
> <NAME>
Z381195346

> <Score>
-27.312916

> <Natom>
44

> <Nflex>
5

> <Hbond>
-2.665931

> <Hphob>
-7.117837

> <VwInt>
-32.952128

> <Eintl>
6.381373

> <Dsolv>
11.017395

> <SolEl>
8.924123

> <mfScore>
-90.389406

> <RecConf>
1

> <molLogP>
3.90743

$$$$
Z1127641499
  MOLSOFT 11211612053D

 44 45  0  0  0  0  0  0  0  0999 V2000
  -34.2703    7.0081   66.6396 H   0  0  0
  -34.6959    7.7869   66.1548 N   0  0  0
  -36.0679    7.8788   66.2076 C   0  3  0
  -36.7289    8.9211   65.6483 N   0  0  0
  -37.7434    8.9527   65.6758 H   0  0  0
  -36.2412    9.6934   65.2161 H   0  0  0
  -36.8308    6.9473   66.8685 N   0  0  0
  -37.7959    7.1914   67.0592 H   0  0  0
  -36.2715    5.8070   67.5103 C   0  0  0
  -35.4847    4.9069   66.8164 C   0  0  0
  -35.2900    5.0542   65.7589 H   0  0  0
  -35.0030    3.7779   67.4585 C   0  0  0
  -34.2545    2.7337   66.6883 C   0  0  0
  -34.9570    2.0857   66.1627 H   0  0  0
  -33.6373    2.1185   67.3500 H   0  0  0
  -33.6005    3.1921   65.9463 H   0  0  0
  -35.2943    3.5841   68.8004 C   0  0  0
  -34.9168    2.7008   69.3083 H   0  0  0
  -36.0913    4.4797   69.4971 C   0  0  0
  -36.3912    4.2585   70.9512 C   0  0  0
  -37.1196    4.9884   71.3179 H   0  0  0
  -35.4777    4.3610   71.5450 H   0  0  0
  -36.8139    3.2620   71.1122 H   0  0  0
  -36.6050    5.5778   68.8289 C   0  0  0
  -37.2483    6.2798   69.3481 H   0  0  0
  -33.8049    8.8024   65.5889 C   0  0  0
  -34.3478    9.5691   65.0317 H   0  0  0
  -33.1421    8.3074   64.8716 H   0  0  0
  -33.0170    9.3866   66.7269 C   0  0  0
  -31.8215    8.8059   67.1222 C   0  0  0
  -31.4045    7.9764   66.5599 H   0  0  0
  -31.1525    9.2615   68.2412 C   0  0  0
  -30.2232    8.7863   68.5387 H   0  0  0
  -31.6533   10.3079   68.9895 C   0  0  0
  -31.0906   10.6376   69.8553 H   0  0  0
  -32.8418   10.9133   68.6015 C   0  0  0
  -33.4998   10.4491   67.4765 C   0  0  0
  -34.6857   11.0498   67.1031 O   0  0  0
  -34.8210   11.7861   67.7336 H   0  0  0
  -33.4519   11.9787   69.2727 O   0  0  0
  -32.8621   12.2580   70.5465 C   0  0  0
  -33.4807   13.0084   71.0444 H   0  0  0
  -31.8580   12.6781   70.4305 H   0  0  0
  -32.8527   11.3674   71.1834 H   0  0  0
  2  1  1
  2  3  2
  2 26  1
  3  4  1
  3  7  1
  4  5  1
  4  6  1
  7  8  1
  7  9  1
  9 10  1
  9 24  2
 10 11  1
 10 12  2
 12 13  1
 12 17  1
 13 14  1
 13 15  1
 13 16  1
 17 18  1
 17 19  2
 19 20  1
 19 24  1
 20 21  1
 20 22  1
 20 23  1
 24 25  1
 26 27  1
 26 28  1
 26 29  1
 29 30  2
 29 37  1
 30 31  1
 30 32  1
 32 33  1
 32 34  2
 34 35  1
 34 36  1
 36 37  2
 36 40  1
 37 38  1
 38 39  1
 40 41  1
 41 42  1
 41 43  1
 41 44  1
M  ZZC   1 h1
M  ZZC   2 n2
M  ZZC   3 c8
M  ZZC   4 n3
M  ZZC   5 h5
M  ZZC   6 h6
M  ZZC   7 n1
M  ZZC   8 h16
M  ZZC   9 c6
M  ZZC  10 c5
M  ZZC  11 h18
M  ZZC  12 c4
M  ZZC  13 c17
M  ZZC  14 h2
M  ZZC  15 h3
M  ZZC  16 h4
M  ZZC  17 c3
M  ZZC  18 h19
M  ZZC  19 c2
M  ZZC  20 c1
M  ZZC  21 h20
M  ZZC  22 h21
M  ZZC  23 h22
M  ZZC  24 c7
M  ZZC  25 h17
M  ZZC  26 c9
M  ZZC  27 h14
M  ZZC  28 h15
M  ZZC  29 c10
M  ZZC  30 c11
M  ZZC  31 h13
M  ZZC  32 c12
M  ZZC  33 h12
M  ZZC  34 c13
M  ZZC  35 h11
M  ZZC  36 c14
M  ZZC  37 c15
M  ZZC  38 o1
M  ZZC  39 h10
M  ZZC  40 o2
M  ZZC  41 c16
M  ZZC  42 h7
M  ZZC  43 h8
M  ZZC  44 h9
M  ZZM   1 36
M  ZZI   1 17
M  ZZM   2 56
M  ZZI   2 232
M  ZZM   3 57
M  ZZI   3 103
M  ZZM   4 56
M  ZZI   4 232
M  ZZM   5 36
M  ZZI   5 17
M  ZZM   6 36
M  ZZI   6 17
M  ZZM   7 56
M  ZZI   7 232
M  ZZM   8 36
M  ZZI   8 17
M  ZZM   9 37
M  ZZI   9 124
M  ZZM  10 37
M  ZZI  10 125
M  ZZM  11 5
M  ZZI  11 1
M  ZZM  12 37
M  ZZI  12 124
M  ZZM  13 1
M  ZZI  13 111
M  ZZM  14 5
M  ZZI  14 1
M  ZZM  15 5
M  ZZI  15 1
M  ZZM  16 5
M  ZZI  16 1
M  ZZM  17 37
M  ZZI  17 125
M  ZZM  18 5
M  ZZI  18 1
M  ZZM  19 37
M  ZZI  19 124
M  ZZM  20 1
M  ZZI  20 111
M  ZZM  21 5
M  ZZI  21 1
M  ZZM  22 5
M  ZZI  22 1
M  ZZM  23 5
M  ZZI  23 1
M  ZZM  24 37
M  ZZI  24 125
M  ZZM  25 5
M  ZZI  25 1
M  ZZM  26 1
M  ZZI  26 112
M  ZZM  27 5
M  ZZI  27 1
M  ZZM  28 5
M  ZZI  28 1
M  ZZM  29 37
M  ZZI  29 124
M  ZZM  30 37
M  ZZI  30 125
M  ZZM  31 5
M  ZZI  31 1
M  ZZM  32 37
M  ZZI  32 125
M  ZZM  33 5
M  ZZI  33 1
M  ZZM  34 37
M  ZZI  34 125
M  ZZM  35 5
M  ZZI  35 1
M  ZZM  36 37
M  ZZI  36 124
M  ZZM  37 37
M  ZZI  37 124
M  ZZM  38 6
M  ZZI  38 62
M  ZZM  39 29
M  ZZI  39 27
M  ZZM  40 6
M  ZZI  40 59
M  ZZM  41 1
M  ZZI  41 111
M  ZZM  42 5
M  ZZI  42 1
M  ZZM  43 5
M  ZZI  43 1
M  ZZM  44 5
M  ZZI  44 1
M  CHG  1   3   1
M  END
> <NAME>
Z1127641499

> <Score>
-27.154286

> <Natom>
44

> <Nflex>
2

> <Hbond>
-5.689236

> <Hphob>
-6.544123

> <VwInt>
-25.912148

> <Eintl>
7.17554

> <Dsolv>
13.007715

> <SolEl>
9.970312

> <mfScore>
-55.772921

> <RecConf>
1

> <molLogP>
3.525148

$$$$
Z1612757998
  MOLSOFT 11211612053D

 44 47  0  0  1  0  0  0  0  0999 V2000
  -33.3791   10.2766   71.5081 H   0  0  0
  -32.7692   10.7348   70.7237 C   0  0  0
  -31.7176   10.4730   70.8849 H   0  0  0
  -32.9763   12.2372   70.6217 C   0  0  0
  -33.9045   12.5181   71.1263 H   0  0  0
  -32.1677   12.7973   71.1003 H   0  0  0
  -33.0854   12.5243   69.1276 C   0  0  0
  -33.7028   13.3974   68.9147 H   0  0  0
  -32.1015   12.7060   68.6923 H   0  0  0
  -33.6971   11.2591   68.5702 C   0  0  1
  -34.7923   11.2465   68.6152 H   0  0  0
  -33.1946   10.7207   67.2435 C   0  0  0
  -33.1884   11.3501   66.1951 O   0  0  0
  -32.7884    9.4213   67.4452 N   0  0  0
  -32.6522    9.1809   68.7807 C   0  0  0
  -33.1878   10.2427   69.4389 N   0  0  0
  -32.0715    8.2381   69.2962 O   0  0  0
  -32.2843    8.5365   66.4153 C   0  0  0
  -31.4818    9.0688   65.8937 H   0  0  0
  -31.8520    7.6491   66.8754 H   0  0  0
  -33.3354    8.1317   65.4356 C   0  0  0
  -33.2280    8.0570   64.0654 C   0  0  0
  -32.3610    8.2922   63.4634 H   0  0  0
  -34.4807    7.6205   63.6129 C   0  0  0
  -34.7949    7.4505   62.5943 H   0  0  0
  -35.3418    7.4086   64.6110 N   0  0  0
  -34.6261    7.7111   65.7205 N   0  0  0
  -35.3043    7.6601   67.0201 C   0  0  0
  -34.5402    7.5625   67.7935 H   0  0  0
  -35.7964    8.6322   67.1353 H   0  0  0
  -36.3304    6.5354   67.1743 C   0  0  0
  -36.9760    6.7578   68.0296 H   0  0  0
  -37.0019    6.4762   66.3122 H   0  0  0
  -35.6843    5.1960   67.4154 C   0  0  0
  -35.3819    4.7785   68.7037 C   0  0  0
  -35.6191    5.4104   69.5542 H   0  0  0
  -34.7849    3.5530   68.9234 C   0  0  0
  -34.5608    3.2325   69.9357 H   0  0  0
  -34.4666    2.7367   67.8590 C   0  0  0
  -33.9915    1.7757   68.0292 H   0  0  0
  -34.7541    3.1479   66.5751 C   0  0  0
  -34.5034    2.5119   65.7342 H   0  0  0
  -35.3640    4.3644   66.3553 C   0  0  0
  -35.5910    4.6675   65.3393 H   0  0  0
  2  1  1
  2  3  1
  2  4  1
  2 16  1
  4  5  1
  4  6  1
  4  7  1
  7  8  1
  7  9  1
 10  7  1
 10 11  1
 10 12  1
 10 16  1
 12 13  2
 12 14  1
 14 15  1
 14 18  1
 15 16  1
 15 17  2
 18 19  1
 18 20  1
 18 21  1
 21 22  2
 21 27  1
 22 23  1
 22 24  1
 24 25  1
 24 26  2
 26 27  1
 27 28  1
 28 29  1
 28 30  1
 28 31  1
 31 32  1
 31 33  1
 31 34  1
 34 35  1
 34 43  2
 35 36  1
 35 37  2
 37 38  1
 37 39  1
 39 40  1
 39 41  2
 41 42  1
 41 43  1
 43 44  1
M  ZZC   1 h1
M  ZZC   2 c17
M  ZZC   3 h2
M  ZZC   4 c16
M  ZZC   5 h3
M  ZZC   6 h4
M  ZZC   7 c15
M  ZZC   8 h5
M  ZZC   9 h6
M  ZZC  10 c14
M  ZZC  11 h20
M  ZZC  12 c13
M  ZZC  13 o1
M  ZZC  14 n3
M  ZZC  15 c18
M  ZZC  16 n4
M  ZZC  17 o2
M  ZZC  18 c12
M  ZZC  19 h7
M  ZZC  20 h8
M  ZZC  21 c9
M  ZZC  22 c10
M  ZZC  23 h10
M  ZZC  24 c11
M  ZZC  25 h9
M  ZZC  26 n2
M  ZZC  27 n1
M  ZZC  28 c8
M  ZZC  29 h11
M  ZZC  30 h12
M  ZZC  31 c7
M  ZZC  32 h13
M  ZZC  33 h14
M  ZZC  34 c4
M  ZZC  35 c3
M  ZZC  36 h17
M  ZZC  37 c2
M  ZZC  38 h18
M  ZZC  39 c1
M  ZZC  40 h19
M  ZZC  41 c6
M  ZZC  42 h15
M  ZZC  43 c5
M  ZZC  44 h16
M  ZZM   1 5
M  ZZI   1 1
M  ZZM   2 1
M  ZZI   2 112
M  ZZM   3 5
M  ZZI   3 1
M  ZZM   4 1
M  ZZI   4 112
M  ZZM   5 5
M  ZZI   5 1
M  ZZM   6 5
M  ZZI   6 1
M  ZZM   7 1
M  ZZI   7 112
M  ZZM   8 5
M  ZZI   8 1
M  ZZM   9 5
M  ZZI   9 1
M  ZZM  10 1
M  ZZI  10 113
M  ZZM  11 5
M  ZZI  11 1
M  ZZM  12 3
M  ZZI  12 121
M  ZZM  13 7
M  ZZI  13 81
M  ZZM  14 10
M  ZZI  14 192
M  ZZM  15 3
M  ZZI  15 121
M  ZZM  16 10
M  ZZI  16 192
M  ZZM  17 7
M  ZZI  17 81
M  ZZM  18 1
M  ZZI  18 112
M  ZZM  19 5
M  ZZI  19 1
M  ZZM  20 5
M  ZZI  20 1
M  ZZM  21 63
M  ZZI  21 104
M  ZZM  22 64
M  ZZI  22 105
M  ZZM  23 5
M  ZZI  23 1
M  ZZM  24 64
M  ZZI  24 105
M  ZZM  25 5
M  ZZI  25 1
M  ZZM  26 65
M  ZZI  26 207
M  ZZM  27 39
M  ZZI  27 215
M  ZZM  28 1
M  ZZI  28 112
M  ZZM  29 5
M  ZZI  29 1
M  ZZM  30 5
M  ZZI  30 1
M  ZZM  31 1
M  ZZI  31 112
M  ZZM  32 5
M  ZZI  32 1
M  ZZM  33 5
M  ZZI  33 1
M  ZZM  34 37
M  ZZI  34 124
M  ZZM  35 37
M  ZZI  35 125
M  ZZM  36 5
M  ZZI  36 1
M  ZZM  37 37
M  ZZI  37 125
M  ZZM  38 5
M  ZZI  38 1
M  ZZM  39 37
M  ZZI  39 125
M  ZZM  40 5
M  ZZI  40 1
M  ZZM  41 37
M  ZZI  41 125
M  ZZM  42 5
M  ZZI  42 1
M  ZZM  43 37
M  ZZI  43 125
M  ZZM  44 5
M  ZZI  44 1
M  END
> <NAME>
Z1612757998

> <Score>
-27.108059

> <Natom>
44

> <Nflex>
5

> <Hbond>
-3.61067

> <Hphob>
-6.426183

> <VwInt>
-27.606693

> <Eintl>
7.683283

> <Dsolv>
10.420992

> <SolEl>
4.732467

> <mfScore>
-106.983047

> <RecConf>
1

> <molLogP>
2.170794

$$$$
Z27880268
  MOLSOFT 11211612053D

 44 45  0  0  0  0  0  0  0  0999 V2000
  -34.4769    7.6193   69.5666 O   0  0  0
  -35.0077    6.5809   69.9455 C   0  0  0
  -35.5018    6.3969   71.3569 C   0  0  0
  -34.6527    6.2136   72.0220 H   0  0  0
  -36.2105    5.5666   71.4244 H   0  0  0
  -36.0335    7.2998   71.6689 H   0  0  0
  -35.1328    5.4432   68.9968 C   0  0  0
  -34.9698    4.1428   69.4588 C   0  0  0
  -34.7705    3.9320   70.5049 H   0  0  0
  -35.0392    3.0895   68.5735 C   0  0  0
  -34.9138    2.0699   68.9255 H   0  0  0
  -35.2582    3.3312   67.2353 C   0  0  0
  -35.2977    2.5023   66.5361 H   0  0  0
  -35.4163    4.6212   66.7712 C   0  0  0
  -35.5744    4.7595   65.7087 H   0  0  0
  -35.3657    5.6999   67.6465 C   0  0  0
  -35.5029    7.0380   67.1939 N   0  0  0
  -35.3130    7.7734   67.8675 H   0  0  0
  -35.9014    7.4219   65.9262 C   0  0  0
  -36.2978    6.6789   65.0458 O   0  0  0
  -35.7739    8.9040   65.6834 C   0  0  0
  -35.6742    9.4370   66.6340 H   0  0  0
  -36.7065    9.2540   65.2293 H   0  0  0
  -34.5853    9.1906   64.7616 C   0  0  0
  -34.5482   10.2678   64.5770 H   0  0  0
  -34.7493    8.7200   63.7865 H   0  0  0
  -33.2368    8.7074   65.3081 C   0  0  0
  -32.4257    9.0889   64.6792 H   0  0  0
  -33.1749    7.6147   65.2941 H   0  0  0
  -32.9945    9.1416   66.6699 N   0  0  0
  -32.9481    8.4316   67.3935 H   0  0  0
  -32.8505   10.4767   66.9906 C   0  0  0
  -32.8890   11.3872   66.1801 O   0  0  0
  -32.6635   10.7837   68.4281 C   0  0  0
  -31.9579    9.9309   69.2675 C   0  0  0
  -31.4993    9.0184   68.9002 H   0  0  0
  -31.8276   10.2534   70.6031 C   0  0  0
  -31.2787    9.5915   71.2659 H   0  0  0
  -32.3972   11.4162   71.0863 C   0  0  0
  -32.2372   11.8169   72.7575 Cl  0  0  0
  -33.0967   12.2639   70.2494 C   0  0  0
  -33.5470   13.1705   70.6385 H   0  0  0
  -33.2279   11.9557   68.9104 C   0  0  0
  -33.7799   12.6269   68.2582 H   0  0  0
  2  1  2
  2  3  1
  2  7  1
  3  4  1
  3  5  1
  3  6  1
  7  8  2
  7 16  1
  8  9  1
  8 10  1
 10 11  1
 10 12  2
 12 13  1
 12 14  1
 14 15  1
 14 16  2
 16 17  1
 17 18  1
 17 19  1
 19 20  2
 19 21  1
 21 22  1
 21 23  1
 21 24  1
 24 25  1
 24 26  1
 24 27  1
 27 28  1
 27 29  1
 27 30  1
 30 31  1
 30 32  1
 32 33  2
 32 34  1
 34 35  2
 34 43  1
 35 36  1
 35 37  1
 37 38  1
 37 39  2
 39 40  1
 39 41  1
 41 42  1
 41 43  2
 43 44  1
M  ZZC   1 o1
M  ZZC   2 c2
M  ZZC   3 c1
M  ZZC   4 h17
M  ZZC   5 h18
M  ZZC   6 h19
M  ZZC   7 c3
M  ZZC   8 c4
M  ZZC   9 h16
M  ZZC  10 c5
M  ZZC  11 h15
M  ZZC  12 c6
M  ZZC  13 h14
M  ZZC  14 c7
M  ZZC  15 h13
M  ZZC  16 c8
M  ZZC  17 n1
M  ZZC  18 h12
M  ZZC  19 c9
M  ZZC  20 o2
M  ZZC  21 c10
M  ZZC  22 h10
M  ZZC  23 h11
M  ZZC  24 c11
M  ZZC  25 h8
M  ZZC  26 h9
M  ZZC  27 c12
M  ZZC  28 h6
M  ZZC  29 h7
M  ZZC  30 n2
M  ZZC  31 h5
M  ZZC  32 c13
M  ZZC  33 o3
M  ZZC  34 c14
M  ZZC  35 c15
M  ZZC  36 h4
M  ZZC  37 c16
M  ZZC  38 h3
M  ZZC  39 c17
M  ZZC  40 &Cl1
M  ZZC  41 c18
M  ZZC  42 h2
M  ZZC  43 c19
M  ZZC  44 h1
M  ZZM   1 7
M  ZZI   1 80
M  ZZM   2 3
M  ZZI   2 122
M  ZZM   3 1
M  ZZI   3 111
M  ZZM   4 5
M  ZZI   4 1
M  ZZM   5 5
M  ZZI   5 1
M  ZZM   6 5
M  ZZI   6 1
M  ZZM   7 37
M  ZZI   7 124
M  ZZM   8 37
M  ZZI   8 125
M  ZZM   9 5
M  ZZI   9 1
M  ZZM  10 37
M  ZZI  10 125
M  ZZM  11 5
M  ZZI  11 1
M  ZZM  12 37
M  ZZI  12 125
M  ZZM  13 5
M  ZZI  13 1
M  ZZM  14 37
M  ZZI  14 125
M  ZZM  15 5
M  ZZI  15 1
M  ZZM  16 37
M  ZZI  16 124
M  ZZM  17 10
M  ZZI  17 191
M  ZZM  18 28
M  ZZI  18 11
M  ZZM  19 3
M  ZZI  19 121
M  ZZM  20 7
M  ZZI  20 81
M  ZZM  21 1
M  ZZI  21 112
M  ZZM  22 5
M  ZZI  22 1
M  ZZM  23 5
M  ZZI  23 1
M  ZZM  24 1
M  ZZI  24 112
M  ZZM  25 5
M  ZZI  25 1
M  ZZM  26 5
M  ZZI  26 1
M  ZZM  27 1
M  ZZI  27 112
M  ZZM  28 5
M  ZZI  28 1
M  ZZM  29 5
M  ZZI  29 1
M  ZZM  30 10
M  ZZI  30 211
M  ZZM  31 28
M  ZZI  31 11
M  ZZM  32 3
M  ZZI  32 121
M  ZZM  33 7
M  ZZI  33 81
M  ZZM  34 37
M  ZZI  34 124
M  ZZM  35 37
M  ZZI  35 125
M  ZZM  36 5
M  ZZI  36 1
M  ZZM  37 37
M  ZZI  37 125
M  ZZM  38 5
M  ZZI  38 1
M  ZZM  39 37
M  ZZI  39 124
M  ZZM  40 12
M  ZZI  40 92
M  ZZM  41 37
M  ZZI  41 125
M  ZZM  42 5
M  ZZI  42 1
M  ZZM  43 37
M  ZZI  43 125
M  ZZM  44 5
M  ZZI  44 1
M  END
> <NAME>
Z27880268

> <Score>
-26.932687

> <Natom>
44

> <Nflex>
5

> <Hbond>
-3.168991

> <Hphob>
-5.979716

> <VwInt>
-29.984733

> <Eintl>
7.197636

> <Dsolv>
11.230663

> <SolEl>
5.534858

> <mfScore>
-101.129449

> <RecConf>
1

> <molLogP>
3.045087

$$$$
Z229328050
  MOLSOFT 11211612053D

 44 46  0  0  0  0  0  0  0  0999 V2000
  -33.3574   12.8956   71.4754 H   0  0  0
  -33.0836   12.2520   70.6450 C   0  0  0
  -33.6877   12.3932   69.4194 C   0  0  0
  -34.4427   13.1448   69.2547 H   0  0  0
  -33.3278   11.5582   68.3936 C   0  0  0
  -33.8216   11.6760   67.4348 H   0  0  0
  -32.3435   10.6063   68.6228 C   0  0  0
  -31.9091    9.7207   67.6354 C   0  0  0
  -30.9234    8.7887   67.9098 C   0  0  0
  -30.5483    8.1281   67.1341 H   0  0  0
  -30.3941    8.7079   69.1751 C   0  0  0
  -29.6464    7.9587   69.4036 H   0  0  0
  -30.8213    9.5757   70.1536 C   0  0  0
  -30.3926    9.5087   71.1482 H   0  0  0
  -31.7857   10.5343   69.9032 C   0  0  0
  -32.1472   11.3412   70.9140 N   0  0  0
  -32.4900    9.7206   66.2677 C   0  0  0
  -32.6665   10.7734   65.6703 O   0  0  0
  -32.8103    8.4604   65.8021 N   0  0  0
  -32.6884    7.6544   66.4062 H   0  0  0
  -33.3627    8.2187   64.4874 C   0  0  0
  -33.3724    7.1342   64.3370 H   0  0  0
  -32.6804    8.6485   63.7466 H   0  0  0
  -34.7616    8.7976   64.3036 C   0  0  0
  -35.1434    8.3991   63.3610 H   0  0  0
  -34.7104    9.8855   64.1983 H   0  0  0
  -35.7201    8.4561   65.4392 C   0  0  0
  -36.7181    8.8549   65.2289 H   0  0  0
  -35.3704    8.9038   66.3750 H   0  0  0
  -35.8089    7.0328   65.5668 O   0  0  0
  -36.4187    6.6484   66.8082 C   0  0  0
  -37.4944    6.5190   66.6547 H   0  0  0
  -36.2665    7.4268   67.5627 H   0  0  0
  -35.8004    5.3620   67.2821 C   0  0  0
  -35.4230    4.3779   66.3806 C   0  0  0
  -35.5648    4.5322   65.3173 H   0  0  0
  -34.8624    3.1958   66.8168 C   0  0  0
  -34.5672    2.4382   66.0986 H   0  0  0
  -34.6844    2.9710   68.1646 C   0  0  0
  -34.2467    2.0385   68.5067 H   0  0  0
  -35.0757    3.9310   69.0738 C   0  0  0
  -34.9466    3.7523   70.1364 H   0  0  0
  -35.6336    5.1169   68.6375 C   0  0  0
  -35.9386    5.8568   69.3714 H   0  0  0
  2  1  1
  2  3  1
  2 16  2
  3  4  1
  3  5  2
  5  6  1
  5  7  1
  7  8  1
  7 15  2
  8  9  2
  8 17  1
  9 10  1
  9 11  1
 11 12  1
 11 13  2
 13 14  1
 13 15  1
 15 16  1
 17 18  2
 17 19  1
 19 20  1
 19 21  1
 21 22  1
 21 23  1
 21 24  1
 24 25  1
 24 26  1
 24 27  1
 27 28  1
 27 29  1
 27 30  1
 30 31  1
 31 32  1
 31 33  1
 31 34  1
 34 35  2
 34 43  1
 35 36  1
 35 37  1
 37 38  1
 37 39  2
 39 40  1
 39 41  1
 41 42  1
 41 43  2
 43 44  1
M  ZZC   1 h1
M  ZZC   2 c20
M  ZZC   3 c19
M  ZZC   4 h2
M  ZZC   5 c18
M  ZZC   6 h3
M  ZZC   7 c17
M  ZZC   8 c12
M  ZZC   9 c13
M  ZZC  10 h6
M  ZZC  11 c14
M  ZZC  12 h5
M  ZZC  13 c15
M  ZZC  14 h4
M  ZZC  15 c16
M  ZZC  16 n2
M  ZZC  17 c11
M  ZZC  18 o2
M  ZZC  19 n1
M  ZZC  20 h7
M  ZZC  21 c10
M  ZZC  22 h8
M  ZZC  23 h9
M  ZZC  24 c9
M  ZZC  25 h10
M  ZZC  26 h11
M  ZZC  27 c8
M  ZZC  28 h12
M  ZZC  29 h13
M  ZZC  30 o1
M  ZZC  31 c7
M  ZZC  32 h14
M  ZZC  33 h15
M  ZZC  34 c4
M  ZZC  35 c3
M  ZZC  36 h18
M  ZZC  37 c2
M  ZZC  38 h19
M  ZZC  39 c1
M  ZZC  40 h20
M  ZZC  41 c6
M  ZZC  42 h16
M  ZZC  43 c5
M  ZZC  44 h17
M  ZZM   1 5
M  ZZI   1 1
M  ZZM   2 37
M  ZZI   2 125
M  ZZM   3 37
M  ZZI   3 125
M  ZZM   4 5
M  ZZI   4 1
M  ZZM   5 37
M  ZZI   5 125
M  ZZM   6 5
M  ZZI   6 1
M  ZZM   7 37
M  ZZI   7 124
M  ZZM   8 37
M  ZZI   8 124
M  ZZM   9 37
M  ZZI   9 125
M  ZZM  10 5
M  ZZI  10 1
M  ZZM  11 37
M  ZZI  11 125
M  ZZM  12 5
M  ZZI  12 1
M  ZZM  13 37
M  ZZI  13 125
M  ZZM  14 5
M  ZZI  14 1
M  ZZM  15 37
M  ZZI  15 124
M  ZZM  16 38
M  ZZI  16 223
M  ZZM  17 3
M  ZZI  17 121
M  ZZM  18 7
M  ZZI  18 81
M  ZZM  19 10
M  ZZI  19 211
M  ZZM  20 28
M  ZZI  20 11
M  ZZM  21 1
M  ZZI  21 112
M  ZZM  22 5
M  ZZI  22 1
M  ZZM  23 5
M  ZZI  23 1
M  ZZM  24 1
M  ZZI  24 112
M  ZZM  25 5
M  ZZI  25 1
M  ZZM  26 5
M  ZZI  26 1
M  ZZM  27 1
M  ZZI  27 112
M  ZZM  28 5
M  ZZI  28 1
M  ZZM  29 5
M  ZZI  29 1
M  ZZM  30 6
M  ZZI  30 65
M  ZZM  31 1
M  ZZI  31 112
M  ZZM  32 5
M  ZZI  32 1
M  ZZM  33 5
M  ZZI  33 1
M  ZZM  34 37
M  ZZI  34 124
M  ZZM  35 37
M  ZZI  35 125
M  ZZM  36 5
M  ZZI  36 1
M  ZZM  37 37
M  ZZI  37 125
M  ZZM  38 5
M  ZZI  38 1
M  ZZM  39 37
M  ZZI  39 125
M  ZZM  40 5
M  ZZI  40 1
M  ZZM  41 37
M  ZZI  41 125
M  ZZM  42 5
M  ZZI  42 1
M  ZZM  43 37
M  ZZI  43 125
M  ZZM  44 5
M  ZZI  44 1
M  END
> <NAME>
Z229328050

> <Score>
-26.872559

> <Natom>
44

> <Nflex>
6

> <Hbond>
-2.97394

> <Hphob>
-7.046814

> <VwInt>
-29.329493

> <Eintl>
9.218806

> <Dsolv>
9.278657

> <SolEl>
6.277841

> <mfScore>
-102.302078

> <RecConf>
1

> <molLogP>
3.394889

$$$$
Z289065232
  MOLSOFT 11211612053D

 44 46  0  0  0  0  0  0  0  0999 V2000
  -37.5737    4.3882   71.0834 F   0  0  0
  -37.0277    5.5721   70.6937 C   0  0  0
  -35.8077    5.6977   71.2867 F   0  0  0
  -37.6764    6.3852   71.0268 H   0  0  0
  -36.8778    5.6113   69.2658 O   0  0  0
  -35.9665    4.6940   68.7233 C   0  0  0
  -35.5848    4.8739   67.3933 C   0  0  0
  -34.8237    3.9079   66.7516 C   0  0  0
  -34.5732    4.0102   65.7019 H   0  0  0
  -34.3716    2.8066   67.4453 C   0  0  0
  -33.7692    2.0573   66.9420 H   0  0  0
  -34.6780    2.6620   68.7801 C   0  0  0
  -34.3127    1.7963   69.3239 H   0  0  0
  -35.4756    3.5907   69.4186 C   0  0  0
  -35.7224    3.4061   70.4574 H   0  0  0
  -35.9913    6.0530   66.5754 C   0  0  0
  -36.5382    5.8285   65.5055 O   0  0  0
  -35.6526    7.3349   67.0061 N   0  0  0
  -36.0027    8.4743   66.1581 C   0  0  0
  -36.3699    8.1332   65.1884 H   0  0  0
  -36.8343    8.9981   66.6408 H   0  0  0
  -34.8164    9.4150   65.9638 C   0  0  0
  -34.0266    8.9185   65.3887 H   0  0  0
  -35.1108   10.3059   65.4011 H   0  0  0
  -34.2295    9.8229   67.2333 N   0  0  0
  -34.7241    9.1325   68.4179 C   0  0  0
  -35.7114    9.5481   68.6425 H   0  0  0
  -34.1032    9.3279   69.2918 H   0  0  0
  -34.8139    7.6358   68.1641 C   0  0  0
  -33.8204    7.2192   67.9642 H   0  0  0
  -35.1983    7.1445   69.0553 H   0  0  0
  -33.2558   10.8139   67.2537 C   0  0  0
  -32.9090   11.3908   66.2326 O   0  0  0
  -32.6963   11.1018   68.5465 C   0  0  0
  -31.7599   10.3859   69.2836 C   0  0  0
  -31.1054    9.1279   68.8518 C   0  0  0
  -31.7247    8.2643   69.1100 H   0  0  0
  -30.1357    9.0015   69.3421 H   0  0  0
  -30.9321    9.1180   67.7718 H   0  0  0
  -31.5189   11.0144   70.5402 C   0  0  0
  -30.8372   10.6401   71.2914 H   0  0  0
  -32.2464   12.1696   70.7154 C   0  0  0
  -32.2500   12.8262   71.5730 H   0  0  0
  -33.2116   12.5339   69.3479 S   0  0  0
  2  1  1
  2  3  1
  2  4  1
  2  5  1
  5  6  1
  6  7  1
  6 14  2
  7  8  2
  7 16  1
  8  9  1
  8 10  1
 10 11  1
 10 12  2
 12 13  1
 12 14  1
 14 15  1
 16 17  2
 16 18  1
 18 19  1
 18 29  1
 19 20  1
 19 21  1
 19 22  1
 22 23  1
 22 24  1
 22 25  1
 25 26  1
 25 32  1
 26 27  1
 26 28  1
 26 29  1
 29 30  1
 29 31  1
 32 33  2
 32 34  1
 34 35  2
 34 44  1
 35 36  1
 35 40  1
 36 37  1
 36 38  1
 36 39  1
 40 41  1
 40 42  2
 42 43  1
 42 44  1
M  ZZC   1 f1
M  ZZC   2 c18
M  ZZC   3 f2
M  ZZC   4 h1
M  ZZC   5 o3
M  ZZC   6 c17
M  ZZC   7 c12
M  ZZC   8 c13
M  ZZC   9 h5
M  ZZC  10 c14
M  ZZC  11 h4
M  ZZC  12 c15
M  ZZC  13 h3
M  ZZC  14 c16
M  ZZC  15 h2
M  ZZC  16 c11
M  ZZC  17 o2
M  ZZC  18 n2
M  ZZC  19 c8
M  ZZC  20 h10
M  ZZC  21 h11
M  ZZC  22 c7
M  ZZC  23 h12
M  ZZC  24 h13
M  ZZC  25 n1
M  ZZC  26 c10
M  ZZC  27 h6
M  ZZC  28 h7
M  ZZC  29 c9
M  ZZC  30 h8
M  ZZC  31 h9
M  ZZC  32 c6
M  ZZC  33 o1
M  ZZC  34 c5
M  ZZC  35 c2
M  ZZC  36 c1
M  ZZC  37 h16
M  ZZC  38 h17
M  ZZC  39 h18
M  ZZC  40 c3
M  ZZC  41 h15
M  ZZC  42 c4
M  ZZC  43 h14
M  ZZC  44 s1
M  ZZM   1 11
M  ZZI   1 90
M  ZZM   2 1
M  ZZI   2 113
M  ZZM   3 11
M  ZZI   3 90
M  ZZM   4 5
M  ZZI   4 1
M  ZZM   5 6
M  ZZI   5 59
M  ZZM   6 37
M  ZZI   6 124
M  ZZM   7 37
M  ZZI   7 124
M  ZZM   8 37
M  ZZI   8 125
M  ZZM   9 5
M  ZZI   9 1
M  ZZM  10 37
M  ZZI  10 125
M  ZZM  11 5
M  ZZI  11 1
M  ZZM  12 37
M  ZZI  12 125
M  ZZM  13 5
M  ZZI  13 1
M  ZZM  14 37
M  ZZI  14 125
M  ZZM  15 5
M  ZZI  15 1
M  ZZM  16 3
M  ZZI  16 121
M  ZZM  17 7
M  ZZI  17 81
M  ZZM  18 10
M  ZZI  18 192
M  ZZM  19 1
M  ZZI  19 112
M  ZZM  20 5
M  ZZI  20 1
M  ZZM  21 5
M  ZZI  21 1
M  ZZM  22 1
M  ZZI  22 112
M  ZZM  23 5
M  ZZI  23 1
M  ZZM  24 5
M  ZZI  24 1
M  ZZM  25 10
M  ZZI  25 192
M  ZZM  26 1
M  ZZI  26 112
M  ZZM  27 5
M  ZZI  27 1
M  ZZM  28 5
M  ZZI  28 1
M  ZZM  29 1
M  ZZI  29 112
M  ZZM  30 5
M  ZZI  30 1
M  ZZM  31 5
M  ZZI  31 1
M  ZZM  32 3
M  ZZI  32 121
M  ZZM  33 7
M  ZZI  33 81
M  ZZM  34 63
M  ZZI  34 104
M  ZZM  35 64
M  ZZI  35 105
M  ZZM  36 1
M  ZZI  36 111
M  ZZM  37 5
M  ZZI  37 1
M  ZZM  38 5
M  ZZI  38 1
M  ZZM  39 5
M  ZZI  39 1
M  ZZM  40 64
M  ZZI  40 105
M  ZZM  41 5
M  ZZI  41 1
M  ZZM  42 63
M  ZZI  42 104
M  ZZM  43 5
M  ZZI  43 1
M  ZZM  44 44
M  ZZI  44 248
M  END
> <NAME>
Z289065232

> <Score>
-26.81252

> <Natom>
44

> <Nflex>
3

> <Hbond>
-3.049287

> <Hphob>
-7.170748

> <VwInt>
-28.701238

> <Eintl>
9.553702

> <Dsolv>
11.125575

> <SolEl>
6.460052

> <mfScore>
-82.340018

> <RecConf>
1

> <molLogP>
2.72693

$$$$
Z194180680
  MOLSOFT 11211612053D

 44 47  0  0  1  0  0  0  0  0999 V2000
  -36.1313    7.4345   65.0566 O   0  0  0
  -35.8141    7.3852   66.2379 C   0  0  0
  -36.1639    6.2162   67.1357 C   0  0  2
  -37.2524    6.2217   67.2726 H   0  0  0
  -35.4647    6.1979   68.4988 C   0  0  0
  -34.5382    6.7809   68.5281 H   0  0  0
  -36.1312    6.5317   69.3007 H   0  0  0
  -35.1512    4.7601   68.5880 C   0  0  0
  -34.7072    4.0323   69.6735 C   0  0  0
  -34.5978    4.4915   70.6511 H   0  0  0
  -34.3885    2.6990   69.4745 C   0  0  0
  -34.0342    2.1012   70.3083 H   0  0  0
  -34.4992    2.1217   68.2178 C   0  0  0
  -34.2303    1.0798   68.0785 H   0  0  0
  -34.9581    2.8628   67.1428 C   0  0  0
  -35.0602    2.4269   66.1555 H   0  0  0
  -35.2936    4.1753   67.3735 C   0  0  0
  -35.7972    5.0209   66.4024 O   0  0  0
  -35.1093    8.3621   66.8944 O   0  0  0
  -34.5913    9.3826   66.0168 C   0  0  1
  -35.3862    9.7338   65.3478 H   0  0  0
  -34.1347   10.6013   66.8068 C   0  0  0
  -33.5131   11.5120   66.2743 O   0  0  0
  -34.4164   10.5479   68.1546 N   0  0  0
  -34.9308    9.7556   68.5255 H   0  0  0
  -33.9295   11.5414   69.0507 C   0  0  0
  -34.3702   12.5165   68.8753 H   0  0  0
  -32.4968   11.5422   69.4936 C   0  0  0
  -31.8498   10.7492   69.1398 H   0  0  0
  -32.0128   12.5037   69.5986 H   0  0  0
  -33.5744   11.1925   70.4702 C   0  0  0
  -33.6548   10.1590   70.7840 H   0  0  0
  -33.7943   11.9162   71.2450 H   0  0  0
  -33.4072    8.8561   65.2419 C   0  0  0
  -32.1832    8.6717   65.8729 C   0  0  0
  -32.0732    8.8354   66.9408 H   0  0  0
  -31.0697    8.3229   65.1457 C   0  0  0
  -30.1111    8.2145   65.6430 H   0  0  0
  -31.1682    8.1132   63.7883 C   0  0  0
  -30.2886    7.8349   63.2164 H   0  0  0
  -32.3881    8.2323   63.1619 C   0  0  0
  -32.4712    8.0410   62.0977 H   0  0  0
  -33.5016    8.6037   63.8818 C   0  0  0
  -34.4489    8.7129   63.3633 H   0  0  0
  2  1  2
  3  2  1
  2 19  1
  3  4  1
  3  5  1
  3 18  1
  5  6  1
  5  7  1
  5  8  1
  8  9  2
  8 17  1
  9 10  1
  9 11  1
 11 12  1
 11 13  2
 13 14  1
 13 15  1
 15 16  1
 15 17  2
 17 18  1
 20 19  1
 20 21  1
 20 22  1
 20 34  1
 22 23  2
 22 24  1
 24 25  1
 24 26  1
 26 27  1
 26 28  1
 26 31  1
 28 29  1
 28 30  1
 28 31  1
 31 32  1
 31 33  1
 34 35  1
 34 43  2
 35 36  1
 35 37  2
 37 38  1
 37 39  1
 39 40  1
 39 41  2
 41 42  1
 41 43  1
 43 44  1
M  ZZC   1 o3
M  ZZC   2 c12
M  ZZC   3 c13
M  ZZC   4 h18
M  ZZC   5 c14
M  ZZC   6 h5
M  ZZC   7 h6
M  ZZC   8 c15
M  ZZC   9 c16
M  ZZC  10 h4
M  ZZC  11 c17
M  ZZC  12 h3
M  ZZC  13 c18
M  ZZC  14 h2
M  ZZC  15 c19
M  ZZC  16 h1
M  ZZC  17 c20
M  ZZC  18 o4
M  ZZC  19 o2
M  ZZC  20 c7
M  ZZC  21 h19
M  ZZC  22 c8
M  ZZC  23 o1
M  ZZC  24 n1
M  ZZC  25 h12
M  ZZC  26 c9
M  ZZC  27 h11
M  ZZC  28 c10
M  ZZC  29 h10
M  ZZC  30 h9
M  ZZC  31 c11
M  ZZC  32 h7
M  ZZC  33 h8
M  ZZC  34 c4
M  ZZC  35 c3
M  ZZC  36 h15
M  ZZC  37 c2
M  ZZC  38 h16
M  ZZC  39 c1
M  ZZC  40 h17
M  ZZC  41 c6
M  ZZC  42 h13
M  ZZC  43 c5
M  ZZC  44 h14
M  ZZM   1 7
M  ZZI   1 82
M  ZZM   2 3
M  ZZI   2 123
M  ZZM   3 1
M  ZZI   3 113
M  ZZM   4 5
M  ZZI   4 1
M  ZZM   5 1
M  ZZI   5 112
M  ZZM   6 5
M  ZZI   6 1
M  ZZM   7 5
M  ZZI   7 1
M  ZZM   8 37
M  ZZI   8 124
M  ZZM   9 37
M  ZZI   9 125
M  ZZM  10 5
M  ZZI  10 1
M  ZZM  11 37
M  ZZI  11 125
M  ZZM  12 5
M  ZZI  12 1
M  ZZM  13 37
M  ZZI  13 125
M  ZZM  14 5
M  ZZI  14 1
M  ZZM  15 37
M  ZZI  15 125
M  ZZM  16 5
M  ZZI  16 1
M  ZZM  17 37
M  ZZI  17 124
M  ZZM  18 6
M  ZZI  18 59
M  ZZM  19 6
M  ZZI  19 61
M  ZZM  20 1
M  ZZI  20 113
M  ZZM  21 5
M  ZZI  21 1
M  ZZM  22 3
M  ZZI  22 121
M  ZZM  23 7
M  ZZI  23 81
M  ZZM  24 10
M  ZZI  24 191
M  ZZM  25 28
M  ZZI  25 11
M  ZZM  26 22
M  ZZI  26 109
M  ZZM  27 5
M  ZZI  27 1
M  ZZM  28 22
M  ZZI  28 109
M  ZZM  29 5
M  ZZI  29 1
M  ZZM  30 5
M  ZZI  30 1
M  ZZM  31 22
M  ZZI  31 109
M  ZZM  32 5
M  ZZI  32 1
M  ZZM  33 5
M  ZZI  33 1
M  ZZM  34 37
M  ZZI  34 124
M  ZZM  35 37
M  ZZI  35 125
M  ZZM  36 5
M  ZZI  36 1
M  ZZM  37 37
M  ZZI  37 125
M  ZZM  38 5
M  ZZI  38 1
M  ZZM  39 37
M  ZZI  39 125
M  ZZM  40 5
M  ZZI  40 1
M  ZZM  41 37
M  ZZI  41 125
M  ZZM  42 5
M  ZZI  42 1
M  ZZM  43 37
M  ZZI  43 125
M  ZZM  44 5
M  ZZI  44 1
M  END
> <NAME>
Z194180680

> <Score>
-26.802516

> <Natom>
44

> <Nflex>
5

> <Hbond>
-3.110372

> <Hphob>
-7.39584

> <VwInt>
-28.589609

> <Eintl>
9.888297

> <Dsolv>
10.303248

> <SolEl>
5.885018

> <mfScore>
-86.416905

> <RecConf>
1

> <molLogP>
3.240994

$$$$
Z422795740
  MOLSOFT 11211612053D

 44 45  0  0  1  0  0  0  0  0999 V2000
  -34.8089    2.4478   65.9230 H   0  0  0
  -34.9718    3.2222   66.6644 C   0  0  0
  -34.7249    2.9730   67.9963 C   0  0  0
  -34.3664    2.0019   68.3205 H   0  0  0
  -34.9550    3.9859   68.9012 C   0  0  0
  -34.7856    3.8286   69.9618 H   0  0  0
  -35.4069    5.2018   68.4286 C   0  0  0
  -35.5997    6.0108   69.1253 H   0  0  0
  -35.6119    5.3751   67.0664 C   0  0  0
  -35.4154    4.3856   66.1768 N   0  0  0
  -36.1288    6.6944   66.5488 C   0  0  0
  -37.2187    6.6845   66.6486 H   0  0  0
  -35.7805    7.5463   67.1394 H   0  0  0
  -35.8453    6.8850   65.1502 O   0  0  0
  -34.5548    7.3326   64.8304 C   0  0  0
  -34.2835    7.4185   63.4826 C   0  0  0
  -35.0423    7.1544   62.7592 H   0  0  0
  -33.0484    7.8338   63.0418 C   0  0  0
  -32.8318    7.8701   61.9815 H   0  0  0
  -32.0851    8.2184   63.9411 C   0  0  0
  -31.1250    8.5613   63.5669 H   0  0  0
  -32.3450    8.1770   65.2995 C   0  0  0
  -33.5721    7.6918   65.7424 C   0  0  0
  -33.7505    7.6333   66.8077 H   0  0  0
  -31.2960    8.6669   66.2583 C   0  0  0
  -30.7072    7.8358   66.6465 H   0  0  0
  -30.6118    9.3446   65.7472 H   0  0  0
  -31.8655    9.3786   67.3781 N   0  0  0
  -31.7862    8.9645   68.2988 H   0  0  0
  -32.5226   10.5809   67.2162 C   0  0  0
  -32.5926   11.1841   66.1550 O   0  0  0
  -33.2156   11.0520   68.4773 C   0  0  1
  -32.5576   10.8591   69.3320 H   0  0  0
  -33.4462   12.5513   68.3834 C   0  0  0
  -34.1115   12.7978   67.5522 H   0  0  0
  -33.8873   12.9376   69.3063 H   0  0  0
  -32.5046   13.0777   68.2136 H   0  0  0
  -34.5453   10.2998   68.6243 C   0  0  0
  -35.3225   10.9731   68.9848 H   0  0  0
  -34.8918    9.9367   67.6517 H   0  0  0
  -34.4433    9.1225   69.5812 C   0  0  0
  -35.4023    8.6030   69.6655 H   0  0  0
  -33.7044    8.4031   69.2219 H   0  0  0
  -34.1363    9.4359   70.5816 H   0  0  0
  2  1  1
  2  3  1
  2 10  2
  3  4  1
  3  5  2
  5  6  1
  5  7  1
  7  8  1
  7  9  2
  9 10  1
  9 11  1
 11 12  1
 11 13  1
 11 14  1
 14 15  1
 15 16  1
 15 23  2
 16 17  1
 16 18  2
 18 19  1
 18 20  1
 20 21  1
 20 22  2
 22 23  1
 22 25  1
 23 24  1
 25 26  1
 25 27  1
 25 28  1
 28 29  1
 28 30  1
 30 31  2
 32 30  1
 32 33  1
 32 34  1
 32 38  1
 34 35  1
 34 36  1
 34 37  1
 38 39  1
 38 40  1
 38 41  1
 41 42  1
 41 43  1
 41 44  1
M  ZZC   1 h1
M  ZZC   2 c18
M  ZZC   3 c17
M  ZZC   4 h2
M  ZZC   5 c16
M  ZZC   6 h3
M  ZZC   7 c15
M  ZZC   8 h4
M  ZZC   9 c14
M  ZZC  10 n2
M  ZZC  11 c13
M  ZZC  12 h5
M  ZZC  13 h6
M  ZZC  14 o2
M  ZZC  15 c11
M  ZZC  16 c10
M  ZZC  17 h8
M  ZZC  18 c9
M  ZZC  19 h9
M  ZZC  20 c8
M  ZZC  21 h10
M  ZZC  22 c7
M  ZZC  23 c12
M  ZZC  24 h7
M  ZZC  25 c6
M  ZZC  26 h11
M  ZZC  27 h12
M  ZZC  28 n1
M  ZZC  29 h13
M  ZZC  30 c5
M  ZZC  31 o1
M  ZZC  32 c3
M  ZZC  33 h22
M  ZZC  34 c4
M  ZZC  35 h14
M  ZZC  36 h15
M  ZZC  37 h16
M  ZZC  38 c2
M  ZZC  39 h17
M  ZZC  40 h18
M  ZZC  41 c1
M  ZZC  42 h19
M  ZZC  43 h20
M  ZZC  44 h21
M  ZZM   1 5
M  ZZI   1 1
M  ZZM   2 37
M  ZZI   2 125
M  ZZM   3 37
M  ZZI   3 125
M  ZZM   4 5
M  ZZI   4 1
M  ZZM   5 37
M  ZZI   5 125
M  ZZM   6 5
M  ZZI   6 1
M  ZZM   7 37
M  ZZI   7 125
M  ZZM   8 5
M  ZZI   8 1
M  ZZM   9 37
M  ZZI   9 124
M  ZZM  10 38
M  ZZI  10 223
M  ZZM  11 1
M  ZZI  11 112
M  ZZM  12 5
M  ZZI  12 1
M  ZZM  13 5
M  ZZI  13 1
M  ZZM  14 6
M  ZZI  14 59
M  ZZM  15 37
M  ZZI  15 124
M  ZZM  16 37
M  ZZI  16 125
M  ZZM  17 5
M  ZZI  17 1
M  ZZM  18 37
M  ZZI  18 125
M  ZZM  19 5
M  ZZI  19 1
M  ZZM  20 37
M  ZZI  20 125
M  ZZM  21 5
M  ZZI  21 1
M  ZZM  22 37
M  ZZI  22 124
M  ZZM  23 37
M  ZZI  23 125
M  ZZM  24 5
M  ZZI  24 1
M  ZZM  25 1
M  ZZI  25 112
M  ZZM  26 5
M  ZZI  26 1
M  ZZM  27 5
M  ZZI  27 1
M  ZZM  28 10
M  ZZI  28 211
M  ZZM  29 28
M  ZZI  29 11
M  ZZM  30 3
M  ZZI  30 121
M  ZZM  31 7
M  ZZI  31 81
M  ZZM  32 1
M  ZZI  32 113
M  ZZM  33 5
M  ZZI  33 1
M  ZZM  34 1
M  ZZI  34 111
M  ZZM  35 5
M  ZZI  35 1
M  ZZM  36 5
M  ZZI  36 1
M  ZZM  37 5
M  ZZI  37 1
M  ZZM  38 1
M  ZZI  38 112
M  ZZM  39 5
M  ZZI  39 1
M  ZZM  40 5
M  ZZI  40 1
M  ZZM  41 1
M  ZZI  41 111
M  ZZM  42 5
M  ZZI  42 1
M  ZZM  43 5
M  ZZI  43 1
M  ZZM  44 5
M  ZZI  44 1
M  END
> <NAME>
Z422795740

> <Score>
-26.487797

> <Natom>
44

> <Nflex>
6

> <Hbond>
-3.235737

> <Hphob>
-7.5311

> <VwInt>
-28.216148

> <Eintl>
8.108541

> <Dsolv>
9.586573

> <SolEl>
6.319201

> <mfScore>
-82.560665

> <RecConf>
1

> <molLogP>
3.295088

$$$$
Z15392402
  MOLSOFT 11211612053D

 44 47  0  0  0  0  0  0  0  0999 V2000
  -36.2402    5.8520   70.2584 Cl  0  0  0
  -35.6660    4.7696   69.0367 C   0  0  0
  -34.9197    3.6775   69.4411 C   0  0  0
  -34.7045    3.5203   70.4934 H   0  0  0
  -34.4429    2.7765   68.5131 C   0  0  0
  -33.8562    1.9194   68.8296 H   0  0  0
  -34.7215    2.9672   67.1783 C   0  0  0
  -34.3558    2.2581   66.4423 H   0  0  0
  -35.4717    4.0510   66.7729 C   0  0  0
  -35.6811    4.1623   65.7134 H   0  0  0
  -35.9555    4.9802   67.6895 C   0  0  0
  -36.7819    6.1549   67.2088 C   0  0  0
  -37.6372    5.8165   66.6190 H   0  0  0
  -37.1773    6.7620   68.0261 H   0  0  0
  -35.9938    7.0325   66.3519 N   0  0  0
  -35.3521    8.1862   66.7019 C   0  0  0
  -34.6617    8.5643   65.6227 C   0  0  0
  -34.8838    7.6239   64.6076 C   0  0  0
  -35.8045    6.7292   65.0270 N   0  0  0
  -34.2520    7.5444   63.2790 C   0  0  0
  -34.6679    6.7270   62.6929 H   0  0  0
  -33.1751    7.3774   63.3735 H   0  0  0
  -34.4086    8.4703   62.7272 H   0  0  0
  -33.8925    9.7297   65.7505 C   0  0  0
  -33.2732   10.1692   64.9808 H   0  0  0
  -34.0603   10.2144   67.0456 C   0  0  0
  -35.1149    9.2221   68.0348 S   0  0  0
  -33.4581   11.3833   67.6006 C   0  0  0
  -32.8370   12.2254   66.9683 O   0  0  0
  -33.6304   11.3904   68.9528 O   0  0  0
  -32.9611   12.4697   69.6150 C   0  0  0
  -33.6909   13.2602   69.8025 H   0  0  0
  -32.1447   12.8823   69.0189 H   0  0  0
  -32.4109   11.9818   70.9385 C   0  0  0
  -32.7187   12.5490   71.9785 O   0  0  0
  -31.5128   10.8525   70.9102 C   0  0  0
  -31.0502   10.1119   71.9808 C   0  0  0
  -31.2952   10.2888   73.0198 H   0  0  0
  -30.2411    9.0688   71.4795 C   0  0  0
  -29.7438    8.2997   72.0546 H   0  0  0
  -30.2083    9.2024   70.1123 C   0  0  0
  -29.7233    8.6094   69.3503 H   0  0  0
  -30.9405   10.3089   69.7858 N   0  0  0
  -31.0259   10.6837   68.8482 H   0  0  0
  2  1  1
  2  3  1
  2 11  2
  3  4  1
  3  5  2
  5  6  1
  5  7  1
  7  8  1
  7  9  2
  9 10  1
  9 11  1
 11 12  1
 12 13  1
 12 14  1
 12 15  1
 15 16  1
 15 19  1
 16 17  2
 16 27  1
 17 18  1
 17 24  1
 18 19  2
 18 20  1
 20 21  1
 20 22  1
 20 23  1
 24 25  1
 24 26  2
 26 27  1
 26 28  1
 28 29  2
 28 30  1
 30 31  1
 31 32  1
 31 33  1
 31 34  1
 34 35  2
 34 36  1
 36 37  2
 36 43  1
 37 38  1
 37 39  1
 39 40  1
 39 41  2
 41 42  1
 41 43  1
 43 44  1
M  ZZC   1 &Cl1
M  ZZC   2 c13
M  ZZC   3 c12
M  ZZC   4 h6
M  ZZC   5 c11
M  ZZC   6 h7
M  ZZC   7 c10
M  ZZC   8 h8
M  ZZC   9 c9
M  ZZC  10 h9
M  ZZC  11 c8
M  ZZC  12 c7
M  ZZC  13 h10
M  ZZC  14 h11
M  ZZC  15 n1
M  ZZC  16 c6
M  ZZC  17 c3
M  ZZC  18 c2
M  ZZC  19 n2
M  ZZC  20 c1
M  ZZC  21 h13
M  ZZC  22 h14
M  ZZC  23 h15
M  ZZC  24 c4
M  ZZC  25 h12
M  ZZC  26 c5
M  ZZC  27 s1
M  ZZC  28 c14
M  ZZC  29 o1
M  ZZC  30 o2
M  ZZC  31 c15
M  ZZC  32 h4
M  ZZC  33 h5
M  ZZC  34 c16
M  ZZC  35 o3
M  ZZC  36 c17
M  ZZC  37 c18
M  ZZC  38 h3
M  ZZC  39 c19
M  ZZC  40 h2
M  ZZC  41 c20
M  ZZC  42 h1
M  ZZC  43 n3
M  ZZC  44 h16
M  ZZM   1 12
M  ZZI   1 92
M  ZZM   2 37
M  ZZI   2 124
M  ZZM   3 37
M  ZZI   3 125
M  ZZM   4 5
M  ZZI   4 1
M  ZZM   5 37
M  ZZI   5 125
M  ZZM   6 5
M  ZZI   6 1
M  ZZM   7 37
M  ZZI   7 125
M  ZZM   8 5
M  ZZI   8 1
M  ZZM   9 37
M  ZZI   9 125
M  ZZM  10 5
M  ZZI  10 1
M  ZZM  11 37
M  ZZI  11 124
M  ZZM  12 1
M  ZZI  12 112
M  ZZM  13 5
M  ZZI  13 1
M  ZZM  14 5
M  ZZI  14 1
M  ZZM  15 39
M  ZZI  15 215
M  ZZM  16 63
M  ZZI  16 104
M  ZZM  17 64
M  ZZI  17 105
M  ZZM  18 64
M  ZZI  18 105
M  ZZM  19 65
M  ZZI  19 207
M  ZZM  20 1
M  ZZI  20 111
M  ZZM  21 5
M  ZZI  21 1
M  ZZM  22 5
M  ZZI  22 1
M  ZZM  23 5
M  ZZI  23 1
M  ZZM  24 64
M  ZZI  24 105
M  ZZM  25 5
M  ZZI  25 1
M  ZZM  26 63
M  ZZI  26 104
M  ZZM  27 44
M  ZZI  27 248
M  ZZM  28 3
M  ZZI  28 123
M  ZZM  29 7
M  ZZI  29 82
M  ZZM  30 6
M  ZZI  30 65
M  ZZM  31 1
M  ZZI  31 112
M  ZZM  32 5
M  ZZI  32 1
M  ZZM  33 5
M  ZZI  33 1
M  ZZM  34 3
M  ZZI  34 122
M  ZZM  35 7
M  ZZI  35 80
M  ZZM  36 63
M  ZZI  36 104
M  ZZM  37 64
M  ZZI  37 105
M  ZZM  38 5
M  ZZI  38 1
M  ZZM  39 64
M  ZZI  39 105
M  ZZM  40 5
M  ZZI  40 1
M  ZZM  41 63
M  ZZI  41 104
M  ZZM  42 5
M  ZZI  42 1
M  ZZM  43 39
M  ZZI  43 215
M  ZZM  44 23
M  ZZI  44 10
M  END
> <NAME>
Z15392402

> <Score>
-25.891075

> <Natom>
44

> <Nflex>
4

> <Hbond>
-3.393735

> <Hphob>
-7.600321

> <VwInt>
-31.19413

> <Eintl>
8.906095

> <Dsolv>
13.614145

> <SolEl>
9.652743

> <mfScore>
-93.227727

> <RecConf>
1

> <molLogP>
4.089516

$$$$
Z1609732407
  MOLSOFT 11211612053D

 44 46  0  0  1  0  0  0  0  0999 V2000
  -33.6460    1.4153   71.4725 Cl  0  0  0
  -34.3054    2.5447   70.3452 C   0  0  0
  -34.8402    3.7281   70.8103 C   0  0  0
  -34.8399    3.9396   71.8750 H   0  0  0
  -35.3798    4.6567   69.9428 C   0  0  0
  -35.7973    5.5809   70.3291 H   0  0  0
  -35.3802    4.3796   68.5805 C   0  0  0
  -34.8346    3.1790   68.1491 C   0  0  0
  -34.2854    2.2399   69.0004 C   0  0  0
  -33.8652    1.3090   68.6317 H   0  0  0
  -34.9682    3.1381   66.7892 N   0  0  0
  -34.6720    2.3685   66.2024 H   0  0  0
  -35.5856    4.2678   66.3440 C   0  0  0
  -35.7934    4.3997   65.2922 H   0  0  0
  -35.8563    5.0764   67.4273 C   0  0  0
  -36.5508    6.3949   67.3865 C   0  0  0
  -36.5232    6.8905   68.3558 H   0  0  0
  -37.6134    6.2364   67.1790 H   0  0  0
  -36.0110    7.2852   66.2773 C   0  0  0
  -36.3101    7.0398   65.1164 O   0  0  0
  -35.1733    8.3486   66.6209 N   0  0  0
  -34.6652    9.1902   65.5481 C   0  0  0
  -35.1990   10.1453   65.5947 H   0  0  0
  -34.8835    8.7454   64.5729 H   0  0  0
  -33.1703    9.4041   65.6913 C   0  0  0
  -32.6467    8.4488   65.5709 H   0  0  0
  -32.8116   10.0653   64.8975 H   0  0  0
  -32.8435    9.9929   67.0550 C   0  0  0
  -33.2847   10.9928   67.1421 H   0  0  0
  -31.7595   10.1181   67.1274 H   0  0  0
  -33.3642    9.0870   68.1766 C   0  0  2
  -32.8220    8.1361   68.1149 H   0  0  0
  -34.8545    8.7876   67.9791 C   0  0  0
  -35.1685    8.0447   68.7125 H   0  0  0
  -35.4550    9.6856   68.1641 H   0  0  0
  -33.1499    9.6907   69.5765 C   0  0  0
  -33.5009    8.9768   70.3295 H   0  0  0
  -33.7815   10.5786   69.6889 H   0  0  0
  -31.7092   10.0949   69.8970 C   0  0  0
  -31.6678   10.5149   70.9071 H   0  0  0
  -31.3822   10.8911   69.2253 H   0  0  0
  -30.7105    8.9364   69.8441 C   0  0  0
  -29.6961    9.1418   69.1216 O   0  0  0
  -31.0135    7.9293   70.5425 O   0  5  0
  2  1  1
  2  3  1
  2  9  2
  3  4  1
  3  5  2
  5  6  1
  5  7  1
  7  8  2
  7 15  1
  8  9  1
  8 11  1
  9 10  1
 11 12  1
 11 13  1
 13 14  1
 13 15  2
 15 16  1
 16 17  1
 16 18  1
 16 19  1
 19 20  2
 19 21  1
 21 22  1
 21 33  1
 22 23  1
 22 24  1
 22 25  1
 25 26  1
 25 27  1
 25 28  1
 28 29  1
 28 30  1
 31 28  1
 31 32  1
 31 33  1
 31 36  1
 33 34  1
 33 35  1
 36 37  1
 36 38  1
 36 39  1
 39 40  1
 39 41  1
 39 42  1
 42 43  2
 42 44  1
M  ZZC   1 &Cl1
M  ZZC   2 c6
M  ZZC   3 c1
M  ZZC   4 h18
M  ZZC   5 c2
M  ZZC   6 h17
M  ZZC   7 c3
M  ZZC   8 c4
M  ZZC   9 c5
M  ZZC  10 h16
M  ZZC  11 n1
M  ZZC  12 h20
M  ZZC  13 c7
M  ZZC  14 h15
M  ZZC  15 c8
M  ZZC  16 c9
M  ZZC  17 h13
M  ZZC  18 h14
M  ZZC  19 c10
M  ZZC  20 o1
M  ZZC  21 n2
M  ZZC  22 c11
M  ZZC  23 h11
M  ZZC  24 h12
M  ZZC  25 c12
M  ZZC  26 h10
M  ZZC  27 h9
M  ZZC  28 c13
M  ZZC  29 h7
M  ZZC  30 h8
M  ZZC  31 c14
M  ZZC  32 h19
M  ZZC  33 c15
M  ZZC  34 h5
M  ZZC  35 h6
M  ZZC  36 c16
M  ZZC  37 h3
M  ZZC  38 h4
M  ZZC  39 c17
M  ZZC  40 h1
M  ZZC  41 h2
M  ZZC  42 c18
M  ZZC  43 o2
M  ZZC  44 o3
M  ZZM   1 12
M  ZZI   1 92
M  ZZM   2 37
M  ZZI   2 124
M  ZZM   3 37
M  ZZI   3 125
M  ZZM   4 5
M  ZZI   4 1
M  ZZM   5 37
M  ZZI   5 125
M  ZZM   6 5
M  ZZI   6 1
M  ZZM   7 64
M  ZZI   7 105
M  ZZM   8 63
M  ZZI   8 104
M  ZZM   9 37
M  ZZI   9 125
M  ZZM  10 5
M  ZZI  10 1
M  ZZM  11 39
M  ZZI  11 215
M  ZZM  12 23
M  ZZI  12 10
M  ZZM  13 63
M  ZZI  13 104
M  ZZM  14 5
M  ZZI  14 1
M  ZZM  15 64
M  ZZI  15 105
M  ZZM  16 1
M  ZZI  16 112
M  ZZM  17 5
M  ZZI  17 1
M  ZZM  18 5
M  ZZI  18 1
M  ZZM  19 3
M  ZZI  19 121
M  ZZM  20 7
M  ZZI  20 81
M  ZZM  21 10
M  ZZI  21 192
M  ZZM  22 1
M  ZZI  22 112
M  ZZM  23 5
M  ZZI  23 1
M  ZZM  24 5
M  ZZI  24 1
M  ZZM  25 1
M  ZZI  25 112
M  ZZM  26 5
M  ZZI  26 1
M  ZZM  27 5
M  ZZI  27 1
M  ZZM  28 1
M  ZZI  28 112
M  ZZM  29 5
M  ZZI  29 1
M  ZZM  30 5
M  ZZI  30 1
M  ZZM  31 1
M  ZZI  31 113
M  ZZM  32 5
M  ZZI  32 1
M  ZZM  33 1
M  ZZI  33 112
M  ZZM  34 5
M  ZZI  34 1
M  ZZM  35 5
M  ZZI  35 1
M  ZZM  36 1
M  ZZI  36 112
M  ZZM  37 5
M  ZZI  37 1
M  ZZM  38 5
M  ZZI  38 1
M  ZZM  39 1
M  ZZI  39 112
M  ZZM  40 5
M  ZZI  40 1
M  ZZM  41 5
M  ZZI  41 1
M  ZZM  42 41
M  ZZI  42 127
M  ZZM  43 32
M  ZZI  43 71
M  ZZM  44 32
M  ZZI  44 71
M  CHG  1  44  -1
M  END
> <NAME>
Z1609732407

> <Score>
-25.740332

> <Natom>
44

> <Nflex>
6

> <Hbond>
-4.971809

> <Hphob>
-6.145957

> <VwInt>
-25.205491

> <Eintl>
4.825049

> <Dsolv>
13.468677

> <SolEl>
3.727454

> <mfScore>
-103.561327

> <RecConf>
1

> <molLogP>
3.414598

$$$$
Z26326086
  MOLSOFT 11211612053D

 44 46  0  0  0  0  0  0  0  0999 V2000
  -36.1339    1.7348   70.3426 H   0  0  0
  -35.0451    1.7120   70.2201 C   0  0  0
  -34.6921    0.7187   70.5077 H   0  0  0
  -34.3608    2.7634   71.0620 C   0  0  0
  -34.4982    2.5392   72.1238 H   0  0  0
  -33.2845    2.8047   70.8647 H   0  0  0
  -34.9304    4.0494   70.8204 O   0  0  0
  -35.0835    4.2446   69.4522 C   0  0  0
  -34.9680    3.2257   68.5130 C   0  0  0
  -34.7231    1.9001   68.8451 O   0  0  0
  -35.1055    3.5103   67.1711 C   0  0  0
  -35.0085    2.7171   66.4360 H   0  0  0
  -35.3900    4.7990   66.7647 C   0  0  0
  -35.4895    4.9837   65.7022 H   0  0  0
  -35.5209    5.8214   67.6978 C   0  0  0
  -35.3579    5.5356   69.0429 C   0  0  0
  -35.4433    6.3217   69.7865 H   0  0  0
  -35.7867    7.1636   67.3328 N   0  0  0
  -35.7318    7.8647   68.0667 H   0  0  0
  -36.1088    7.5884   66.0527 C   0  0  0
  -36.3660    6.8540   65.1103 O   0  0  0
  -36.1789    9.0956   65.9021 C   0  0  0
  -37.1679    9.3998   66.2575 H   0  0  0
  -36.1369    9.3851   64.8494 H   0  0  0
  -35.2138    9.8499   66.6576 O   0  0  0
  -33.8592    9.5235   66.4794 C   0  0  0
  -33.3010    8.8981   65.3566 C   0  0  0
  -34.1198    8.6345   64.2564 O   0  0  0
  -33.5880    7.6535   63.3595 C   0  0  0
  -32.7708    8.0688   62.7607 H   0  0  0
  -34.3873    7.3704   62.6719 H   0  0  0
  -33.2808    6.7487   63.8938 H   0  0  0
  -31.9428    8.5978   65.3437 C   0  0  0
  -31.4694    8.1210   64.4931 H   0  0  0
  -31.1434    8.9219   66.4192 C   0  0  0
  -30.0868    8.6724   66.3979 H   0  0  0
  -31.6717    9.5780   67.5094 C   0  0  0
  -31.0279    9.8239   68.3489 H   0  0  0
  -33.0231    9.8815   67.5304 C   0  0  0
  -33.5960   10.5418   68.7275 C   0  0  0
  -34.6069   10.1069   69.2578 O   0  0  0
  -32.9110   11.6383   69.1843 N   0  0  0
  -33.2607   12.1336   69.9958 H   0  0  0
  -32.0812   12.0157   68.7367 H   0  0  0
  2  1  1
  2  3  1
  2  4  1
  2 10  1
  4  5  1
  4  6  1
  4  7  1
  7  8  1
  8  9  1
  8 16  2
  9 10  1
  9 11  2
 11 12  1
 11 13  1
 13 14  1
 13 15  2
 15 16  1
 15 18  1
 16 17  1
 18 19  1
 18 20  1
 20 21  2
 20 22  1
 22 23  1
 22 24  1
 22 25  1
 25 26  1
 26 27  1
 26 39  2
 27 28  1
 27 33  2
 28 29  1
 29 30  1
 29 31  1
 29 32  1
 33 34  1
 33 35  1
 35 36  1
 35 37  2
 37 38  1
 37 39  1
 39 40  1
 40 41  2
 40 42  1
 42 43  1
 42 44  1
M  ZZC   1 h3
M  ZZC   2 c17
M  ZZC   3 h4
M  ZZC   4 c16
M  ZZC   5 h5
M  ZZC   6 h6
M  ZZC   7 o4
M  ZZC   8 c14
M  ZZC   9 c13
M  ZZC  10 o5
M  ZZC  11 c12
M  ZZC  12 h8
M  ZZC  13 c11
M  ZZC  14 h9
M  ZZC  15 c10
M  ZZC  16 c15
M  ZZC  17 h7
M  ZZC  18 n1
M  ZZC  19 h10
M  ZZC  20 c9
M  ZZC  21 o3
M  ZZC  22 c8
M  ZZC  23 h11
M  ZZC  24 h12
M  ZZC  25 o2
M  ZZC  26 c7
M  ZZC  27 c2
M  ZZC  28 o1
M  ZZC  29 c1
M  ZZC  30 h16
M  ZZC  31 h17
M  ZZC  32 h18
M  ZZC  33 c3
M  ZZC  34 h15
M  ZZC  35 c4
M  ZZC  36 h14
M  ZZC  37 c5
M  ZZC  38 h13
M  ZZC  39 c6
M  ZZC  40 c18
M  ZZC  41 o6
M  ZZC  42 n2
M  ZZC  43 h1
M  ZZC  44 h2
M  ZZM   1 5
M  ZZI   1 1
M  ZZM   2 1
M  ZZI   2 112
M  ZZM   3 5
M  ZZI   3 1
M  ZZM   4 1
M  ZZI   4 112
M  ZZM   5 5
M  ZZI   5 1
M  ZZM   6 5
M  ZZI   6 1
M  ZZM   7 6
M  ZZI   7 59
M  ZZM   8 37
M  ZZI   8 124
M  ZZM   9 37
M  ZZI   9 124
M  ZZM  10 6
M  ZZI  10 59
M  ZZM  11 37
M  ZZI  11 125
M  ZZM  12 5
M  ZZI  12 1
M  ZZM  13 37
M  ZZI  13 125
M  ZZM  14 5
M  ZZI  14 1
M  ZZM  15 37
M  ZZI  15 124
M  ZZM  16 37
M  ZZI  16 125
M  ZZM  17 5
M  ZZI  17 1
M  ZZM  18 10
M  ZZI  18 191
M  ZZM  19 28
M  ZZI  19 11
M  ZZM  20 3
M  ZZI  20 121
M  ZZM  21 7
M  ZZI  21 81
M  ZZM  22 1
M  ZZI  22 112
M  ZZM  23 5
M  ZZI  23 1
M  ZZM  24 5
M  ZZI  24 1
M  ZZM  25 6
M  ZZI  25 59
M  ZZM  26 37
M  ZZI  26 124
M  ZZM  27 37
M  ZZI  27 124
M  ZZM  28 6
M  ZZI  28 59
M  ZZM  29 1
M  ZZI  29 111
M  ZZM  30 5
M  ZZI  30 1
M  ZZM  31 5
M  ZZI  31 1
M  ZZM  32 5
M  ZZI  32 1
M  ZZM  33 37
M  ZZI  33 125
M  ZZM  34 5
M  ZZI  34 1
M  ZZM  35 37
M  ZZI  35 125
M  ZZM  36 5
M  ZZI  36 1
M  ZZM  37 37
M  ZZI  37 125
M  ZZM  38 5
M  ZZI  38 1
M  ZZM  39 37
M  ZZI  39 124
M  ZZM  40 3
M  ZZI  40 121
M  ZZM  41 7
M  ZZI  41 81
M  ZZM  42 10
M  ZZI  42 212
M  ZZM  43 28
M  ZZI  43 11
M  ZZM  44 28
M  ZZI  44 11
M  END
> <NAME>
Z26326086

> <Score>
-25.466464

> <Natom>
44

> <Nflex>
2

> <Hbond>
-2.459365

> <Hphob>
-6.651991

> <VwInt>
-30.710527

> <Eintl>
6.963162

> <Dsolv>
14.348581

> <SolEl>
6.002508

> <mfScore>
-103.827231

> <RecConf>
1

> <molLogP>
1.389533

$$$$
Z71115864
  MOLSOFT 11211612053D

 44 46  0  0  1  0  0  0  0  0999 V2000
  -37.7588    7.1379   73.4575 Cl  0  0  0
  -37.1258    6.7334   71.9171 C   0  0  0
  -35.8708    7.1664   71.5398 C   0  0  0
  -35.2517    7.7270   72.2332 H   0  0  0
  -35.4140    6.9093   70.2624 C   0  0  0
  -34.4208    7.2507   69.9917 H   0  0  0
  -36.2165    6.2191   69.3542 C   0  0  0
  -37.4601    5.7726   69.7785 C   0  0  0
  -38.1038    5.2332   69.0960 H   0  0  0
  -37.9149    6.0174   71.0515 C   0  0  0
  -38.9009    5.6772   71.3506 H   0  0  0
  -35.7760    5.8666   67.9519 C   0  0  2
  -36.6917    5.7756   67.3569 H   0  0  0
  -35.0828    4.5198   67.8832 C   0  0  0
  -34.7441    3.7924   69.0246 C   0  0  0
  -34.9335    4.1793   70.0194 H   0  0  0
  -34.1697    2.5429   68.9360 C   0  0  0
  -33.9225    1.9915   69.8375 H   0  0  0
  -33.9065    1.9932   67.7056 C   0  0  0
  -33.4449    1.0145   67.6358 H   0  0  0
  -34.2281    2.6996   66.5684 C   0  0  0
  -34.0172    2.2826   65.5951 H   0  0  0
  -34.8194    3.9390   66.6517 C   0  0  0
  -35.0844    4.4506   65.7323 H   0  0  0
  -35.0030    6.9366   67.3361 N   0  0  0
  -34.2172    7.3247   67.8405 H   0  0  0
  -35.2491    7.3680   66.0482 C   0  0  0
  -36.0735    6.8594   65.3010 O   0  0  0
  -34.4077    8.4637   65.6208 C   0  0  0
  -34.0677    9.7040   66.2441 C   0  0  0
  -34.5019   10.2523   67.5575 C   0  0  0
  -35.3760    9.7069   67.9258 H   0  0  0
  -34.8230   11.2907   67.4300 H   0  0  0
  -33.4031   10.2078   68.6053 C   0  0  0
  -33.7708   10.5909   69.5616 H   0  0  0
  -32.5461   10.8182   68.3034 H   0  0  0
  -33.0436    9.1863   68.7617 H   0  0  0
  -33.2880   10.4513   65.4483 N   0  0  0
  -33.0760    9.6859   64.3011 O   0  0  0
  -33.7541    8.5121   64.4103 C   0  0  0
  -33.6399    7.5787   63.2704 C   0  0  0
  -34.5460    7.6135   62.6619 H   0  0  0
  -33.5062    6.5541   63.6247 H   0  0  0
  -32.7844    7.8293   62.6364 H   0  0  0
  2  1  1
  2  3  2
  2 10  1
  3  4  1
  3  5  1
  5  6  1
  5  7  2
  7  8  1
 12  7  1
  8  9  1
  8 10  2
 10 11  1
 12 13  1
 12 14  1
 12 25  1
 14 15  2
 14 23  1
 15 16  1
 15 17  1
 17 18  1
 17 19  2
 19 20  1
 19 21  1
 21 22  1
 21 23  2
 23 24  1
 25 26  1
 25 27  1
 27 28  2
 27 29  1
 29 30  1
 29 40  2
 30 31  1
 30 38  2
 31 32  1
 31 33  1
 31 34  1
 34 35  1
 34 36  1
 34 37  1
 38 39  1
 39 40  1
 40 41  1
 41 42  1
 41 43  1
 41 44  1
M  ZZC   1 &Cl1
M  ZZC   2 c18
M  ZZC   3 c17
M  ZZC   4 h3
M  ZZC   5 c16
M  ZZC   6 h4
M  ZZC   7 c15
M  ZZC   8 c20
M  ZZC   9 h1
M  ZZC  10 c19
M  ZZC  11 h2
M  ZZC  12 c8
M  ZZC  13 h19
M  ZZC  14 c9
M  ZZC  15 c10
M  ZZC  16 h9
M  ZZC  17 c11
M  ZZC  18 h8
M  ZZC  19 c12
M  ZZC  20 h7
M  ZZC  21 c13
M  ZZC  22 h6
M  ZZC  23 c14
M  ZZC  24 h5
M  ZZC  25 n2
M  ZZC  26 h10
M  ZZC  27 c7
M  ZZC  28 o2
M  ZZC  29 c4
M  ZZC  30 c3
M  ZZC  31 c2
M  ZZC  32 h14
M  ZZC  33 h15
M  ZZC  34 c1
M  ZZC  35 h16
M  ZZC  36 h17
M  ZZC  37 h18
M  ZZC  38 n1
M  ZZC  39 o1
M  ZZC  40 c5
M  ZZC  41 c6
M  ZZC  42 h11
M  ZZC  43 h12
M  ZZC  44 h13
M  ZZM   1 12
M  ZZI   1 92
M  ZZM   2 37
M  ZZI   2 124
M  ZZM   3 37
M  ZZI   3 125
M  ZZM   4 5
M  ZZI   4 1
M  ZZM   5 37
M  ZZI   5 125
M  ZZM   6 5
M  ZZI   6 1
M  ZZM   7 37
M  ZZI   7 124
M  ZZM   8 37
M  ZZI   8 125
M  ZZM   9 5
M  ZZI   9 1
M  ZZM  10 37
M  ZZI  10 125
M  ZZM  11 5
M  ZZI  11 1
M  ZZM  12 1
M  ZZI  12 113
M  ZZM  13 5
M  ZZI  13 1
M  ZZM  14 37
M  ZZI  14 124
M  ZZM  15 37
M  ZZI  15 125
M  ZZM  16 5
M  ZZI  16 1
M  ZZM  17 37
M  ZZI  17 125
M  ZZM  18 5
M  ZZI  18 1
M  ZZM  19 37
M  ZZI  19 125
M  ZZM  20 5
M  ZZI  20 1
M  ZZM  21 37
M  ZZI  21 125
M  ZZM  22 5
M  ZZI  22 1
M  ZZM  23 37
M  ZZI  23 125
M  ZZM  24 5
M  ZZI  24 1
M  ZZM  25 10
M  ZZI  25 211
M  ZZM  26 28
M  ZZI  26 11
M  ZZM  27 3
M  ZZI  27 121
M  ZZM  28 7
M  ZZI  28 81
M  ZZM  29 64
M  ZZI  29 105
M  ZZM  30 64
M  ZZI  30 105
M  ZZM  31 1
M  ZZI  31 112
M  ZZM  32 5
M  ZZI  32 1
M  ZZM  33 5
M  ZZI  33 1
M  ZZM  34 1
M  ZZI  34 111
M  ZZM  35 5
M  ZZI  35 1
M  ZZM  36 5
M  ZZI  36 1
M  ZZM  37 5
M  ZZI  37 1
M  ZZM  38 65
M  ZZI  38 207
M  ZZM  39 59
M  ZZI  39 56
M  ZZM  40 63
M  ZZI  40 104
M  ZZM  41 1
M  ZZI  41 111
M  ZZM  42 5
M  ZZI  42 1
M  ZZM  43 5
M  ZZI  43 1
M  ZZM  44 5
M  ZZI  44 1
M  END
> <NAME>
Z71115864

> <Score>
-25.272251

> <Natom>
44

> <Nflex>
4

> <Hbond>
-2.992916

> <Hphob>
-7.143663

> <VwInt>
-26.65988

> <Eintl>
7.153856

> <Dsolv>
10.96334

> <SolEl>
4.732507

> <mfScore>
-77.981212

> <RecConf>
1

> <molLogP>
4.610418

$$$$
Z1622477057
  MOLSOFT 11211612053D

 44 45  0  0  1  0  0  0  0  0999 V2000
  -33.8589    6.3134   63.0848 H   0  0  0
  -33.3811    7.2208   63.0601 N   0  3  0
  -32.4640    7.0657   62.6210 H   0  0  0
  -33.9249    7.8250   62.4265 H   0  0  0
  -33.2483    7.7889   64.4431 C   0  0  1
  -32.5154    7.1498   64.9414 H   0  0  0
  -32.7321    9.2117   64.2766 C   0  0  0
  -32.2203    9.5554   65.1766 H   0  0  0
  -33.5542    9.9062   64.0805 H   0  0  0
  -32.0117    9.2817   63.4557 H   0  0  0
  -34.5952    7.7138   65.1755 C   0  0  0
  -35.5877    7.4084   64.5292 O   0  0  0
  -34.6413    7.9419   66.5558 N   0  0  0
  -33.4804    8.2272   67.4070 C   0  0  0
  -32.5470    8.0755   66.8643 H   0  0  0
  -33.4839    7.5039   68.2286 H   0  0  0
  -33.5314    9.6193   67.9421 C   0  0  0
  -33.5118   10.1324   69.2237 C   0  0  0
  -33.4685    9.5623   70.1411 H   0  0  0
  -33.5532   11.5412   69.0955 C   0  0  0
  -33.5468   12.2795   69.8846 H   0  0  0
  -33.6037   11.8009   67.7469 C   0  0  0
  -33.6505   12.7090   67.1652 H   0  0  0
  -33.5852   10.6402   67.0343 O   0  0  0
  -35.9465    7.9279   67.2266 C   0  0  0
  -35.7998    8.1965   68.2774 H   0  0  0
  -36.5534    8.7216   66.7762 H   0  0  0
  -36.7218    6.6080   67.1529 C   0  0  0
  -37.6158    6.6810   67.7803 H   0  0  0
  -37.1079    6.4530   66.1439 H   0  0  0
  -35.9429    5.3870   67.5667 C   0  0  0
  -35.4914    4.4915   66.6097 C   0  0  0
  -35.6785    4.6767   65.5574 H   0  0  0
  -34.8287    3.3394   66.9759 C   0  0  0
  -34.5075    2.6437   66.2067 H   0  0  0
  -34.5964    3.0576   68.3105 C   0  0  0
  -33.9349    1.7728   68.7093 C   0  0  0
  -34.6802    0.9765   68.7980 H   0  0  0
  -33.4212    1.8815   69.6687 H   0  0  0
  -33.1884    1.4743   67.9671 H   0  0  0
  -35.0418    3.9530   69.2687 C   0  0  0
  -34.8873    3.7449   70.3229 H   0  0  0
  -35.7018    5.1093   68.9021 C   0  0  0
  -36.0547    5.7865   69.6739 H   0  0  0
  2  1  1
  2  3  1
  2  4  1
  5  2  1
  5  6  1
  5  7  1
  5 11  1
  7  8  1
  7  9  1
  7 10  1
 11 12  2
 11 13  1
 13 14  1
 13 25  1
 14 15  1
 14 16  1
 14 17  1
 17 18  2
 17 24  1
 18 19  1
 18 20  1
 20 21  1
 20 22  2
 22 23  1
 22 24  1
 25 26  1
 25 27  1
 25 28  1
 28 29  1
 28 30  1
 28 31  1
 31 32  2
 31 43  1
 32 33  1
 32 34  1
 34 35  1
 34 36  2
 36 37  1
 36 41  1
 37 38  1
 37 39  1
 37 40  1
 41 42  1
 41 43  2
 43 44  1
M  ZZC   1 h1
M  ZZC   2 n2
M  ZZC   3 h2
M  ZZC   4 h3
M  ZZC   5 c16
M  ZZC   6 h23
M  ZZC   7 c17
M  ZZC   8 h4
M  ZZC   9 h5
M  ZZC  10 h6
M  ZZC  11 c15
M  ZZC  12 o2
M  ZZC  13 n1
M  ZZC  14 c10
M  ZZC  15 h10
M  ZZC  16 h11
M  ZZC  17 c11
M  ZZC  18 c12
M  ZZC  19 h9
M  ZZC  20 c13
M  ZZC  21 h8
M  ZZC  22 c14
M  ZZC  23 h7
M  ZZC  24 o1
M  ZZC  25 c9
M  ZZC  26 h12
M  ZZC  27 h13
M  ZZC  28 c8
M  ZZC  29 h14
M  ZZC  30 h15
M  ZZC  31 c5
M  ZZC  32 c4
M  ZZC  33 h18
M  ZZC  34 c3
M  ZZC  35 h19
M  ZZC  36 c2
M  ZZC  37 c1
M  ZZC  38 h20
M  ZZC  39 h21
M  ZZC  40 h22
M  ZZC  41 c7
M  ZZC  42 h16
M  ZZC  43 c6
M  ZZC  44 h17
M  ZZM   1 36
M  ZZI   1 17
M  ZZM   2 34
M  ZZI   2 231
M  ZZM   3 36
M  ZZI   3 17
M  ZZM   4 36
M  ZZI   4 17
M  ZZM   5 1
M  ZZI   5 113
M  ZZM   6 5
M  ZZI   6 1
M  ZZM   7 1
M  ZZI   7 111
M  ZZM   8 5
M  ZZI   8 1
M  ZZM   9 5
M  ZZI   9 1
M  ZZM  10 5
M  ZZI  10 1
M  ZZM  11 3
M  ZZI  11 121
M  ZZM  12 7
M  ZZI  12 81
M  ZZM  13 10
M  ZZI  13 192
M  ZZM  14 1
M  ZZI  14 112
M  ZZM  15 5
M  ZZI  15 1
M  ZZM  16 5
M  ZZI  16 1
M  ZZM  17 63
M  ZZI  17 104
M  ZZM  18 64
M  ZZI  18 105
M  ZZM  19 5
M  ZZI  19 1
M  ZZM  20 64
M  ZZI  20 105
M  ZZM  21 5
M  ZZI  21 1
M  ZZM  22 63
M  ZZI  22 104
M  ZZM  23 5
M  ZZI  23 1
M  ZZM  24 59
M  ZZI  24 56
M  ZZM  25 1
M  ZZI  25 112
M  ZZM  26 5
M  ZZI  26 1
M  ZZM  27 5
M  ZZI  27 1
M  ZZM  28 1
M  ZZI  28 112
M  ZZM  29 5
M  ZZI  29 1
M  ZZM  30 5
M  ZZI  30 1
M  ZZM  31 37
M  ZZI  31 124
M  ZZM  32 37
M  ZZI  32 125
M  ZZM  33 5
M  ZZI  33 1
M  ZZM  34 37
M  ZZI  34 125
M  ZZM  35 5
M  ZZI  35 1
M  ZZM  36 37
M  ZZI  36 124
M  ZZM  37 1
M  ZZI  37 111
M  ZZM  38 5
M  ZZI  38 1
M  ZZM  39 5
M  ZZI  39 1
M  ZZM  40 5
M  ZZI  40 1
M  ZZM  41 37
M  ZZI  41 125
M  ZZM  42 5
M  ZZI  42 1
M  ZZM  43 37
M  ZZI  43 125
M  ZZM  44 5
M  ZZI  44 1
M  CHG  1   2   1
M  END
> <NAME>
Z1622477057

> <Score>
-25.197439

> <Natom>
44

> <Nflex>
7

> <Hbond>
-6.701548

> <Hphob>
-6.579422

> <VwInt>
-28.761936

> <Eintl>
5.565091

> <Dsolv>
11.839929

> <SolEl>
17.951029

> <mfScore>
-83.273805

> <RecConf>
1

> <molLogP>
2.636964

$$$$
Z61980600
  MOLSOFT 11211612053D

 44 46  0  0  0  0  0  0  0  0999 V2000
  -35.2696    7.0944   69.8950 O   0  0  0
  -35.6188    5.9209   69.9286 C   0  0  0
  -36.3006    5.3250   71.1334 C   0  0  0
  -35.5579    5.0820   71.8987 H   0  0  0
  -36.8651    4.4275   70.8649 H   0  0  0
  -37.0205    6.0483   71.5277 H   0  0  0
  -35.3661    5.0429   68.7558 C   0  0  0
  -35.4471    5.5669   67.4646 C   0  0  0
  -35.2449    4.7119   66.3904 C   0  0  0
  -35.2864    5.0701   65.3694 H   0  0  0
  -34.9526    3.3791   66.5959 C   0  0  0
  -34.7860    2.7259   65.7454 H   0  0  0
  -34.8630    2.8725   67.8740 C   0  0  0
  -34.6311    1.8224   68.0238 H   0  0  0
  -35.0731    3.6991   68.9572 C   0  0  0
  -34.9912    3.2787   69.9547 H   0  0  0
  -35.7213    6.9466   67.2799 N   0  0  0
  -35.7037    7.5270   68.1134 H   0  0  0
  -36.0448    7.5542   66.0797 C   0  0  0
  -36.2576    6.9832   65.0210 O   0  0  0
  -36.1243    9.0562   66.1855 C   0  0  0
  -36.3294    9.3410   67.2208 H   0  0  0
  -36.9898    9.3820   65.5989 H   0  0  0
  -34.8538    9.7200   65.6495 C   0  0  0
  -34.6920    9.3889   64.6220 H   0  0  0
  -35.0168   10.7941   65.5643 H   0  0  0
  -33.6173    9.5100   66.4937 C   0  0  0
  -32.4565    8.7154   65.9529 C   0  0  0
  -32.5630    8.1293   64.5645 C   0  0  0
  -33.3946    7.4208   64.5232 H   0  0  0
  -31.6501    7.5825   64.3111 H   0  0  0
  -32.7457    8.9192   63.8300 H   0  0  0
  -31.3401    8.4919   66.5782 N   0  0  0
  -31.2295    9.0138   67.8231 C   0  0  0
  -32.2390    9.7570   68.3810 N   0  0  0
  -33.4125   10.0284   67.7207 C   0  0  0
  -34.3799   10.9104   68.4535 C   0  0  0
  -34.7915   10.3863   69.3214 H   0  0  0
  -35.2160   11.2299   67.8333 H   0  0  0
  -33.8886   11.8266   68.7974 H   0  0  0
  -31.8860   10.1467   69.6244 N   0  0  0
  -30.6662    9.6278   69.7455 C   0  0  0
  -30.0840    9.7625   70.6475 H   0  0  0
  -30.2227    8.9316   68.6649 N   0  0  0
  2  1  2
  2  3  1
  2  7  1
  3  4  1
  3  5  1
  3  6  1
  7  8  1
  7 15  2
  8  9  2
  8 17  1
  9 10  1
  9 11  1
 11 12  1
 11 13  2
 13 14  1
 13 15  1
 15 16  1
 17 18  1
 17 19  1
 19 20  2
 19 21  1
 21 22  1
 21 23  1
 21 24  1
 24 25  1
 24 26  1
 24 27  1
 27 28  1
 27 36  2
 28 29  1
 28 33  2
 29 30  1
 29 31  1
 29 32  1
 33 34  1
 34 35  1
 34 44  2
 35 36  1
 35 41  1
 36 37  1
 37 38  1
 37 39  1
 37 40  1
 41 42  2
 42 43  1
 42 44  1
M  ZZC   1 o2
M  ZZC   2 c17
M  ZZC   3 c18
M  ZZC   4 h1
M  ZZC   5 h2
M  ZZC   6 h3
M  ZZC   7 c16
M  ZZC   8 c11
M  ZZC   9 c12
M  ZZC  10 h7
M  ZZC  11 c13
M  ZZC  12 h6
M  ZZC  13 c14
M  ZZC  14 h5
M  ZZC  15 c15
M  ZZC  16 h4
M  ZZC  17 n5
M  ZZC  18 h8
M  ZZC  19 c10
M  ZZC  20 o1
M  ZZC  21 c9
M  ZZC  22 h10
M  ZZC  23 h9
M  ZZC  24 c8
M  ZZC  25 h11
M  ZZC  26 h12
M  ZZC  27 c3
M  ZZC  28 c2
M  ZZC  29 c1
M  ZZC  30 h17
M  ZZC  31 h18
M  ZZC  32 h19
M  ZZC  33 n2
M  ZZC  34 c5
M  ZZC  35 n1
M  ZZC  36 c4
M  ZZC  37 c7
M  ZZC  38 h13
M  ZZC  39 h14
M  ZZC  40 h15
M  ZZC  41 n4
M  ZZC  42 c6
M  ZZC  43 h16
M  ZZC  44 n3
M  ZZM   1 7
M  ZZI   1 80
M  ZZM   2 3
M  ZZI   2 122
M  ZZM   3 1
M  ZZI   3 111
M  ZZM   4 5
M  ZZI   4 1
M  ZZM   5 5
M  ZZI   5 1
M  ZZM   6 5
M  ZZI   6 1
M  ZZM   7 37
M  ZZI   7 124
M  ZZM   8 37
M  ZZI   8 124
M  ZZM   9 37
M  ZZI   9 125
M  ZZM  10 5
M  ZZI  10 1
M  ZZM  11 37
M  ZZI  11 125
M  ZZM  12 5
M  ZZI  12 1
M  ZZM  13 37
M  ZZI  13 125
M  ZZM  14 5
M  ZZI  14 1
M  ZZM  15 37
M  ZZI  15 125
M  ZZM  16 5
M  ZZI  16 1
M  ZZM  17 10
M  ZZI  17 191
M  ZZM  18 28
M  ZZI  18 11
M  ZZM  19 3
M  ZZI  19 121
M  ZZM  20 7
M  ZZI  20 81
M  ZZM  21 1
M  ZZI  21 112
M  ZZM  22 5
M  ZZI  22 1
M  ZZM  23 5
M  ZZI  23 1
M  ZZM  24 1
M  ZZI  24 112
M  ZZM  25 5
M  ZZI  25 1
M  ZZM  26 5
M  ZZI  26 1
M  ZZM  27 2
M  ZZI  27 120
M  ZZM  28 3
M  ZZI  28 121
M  ZZM  29 1
M  ZZI  29 111
M  ZZM  30 5
M  ZZI  30 1
M  ZZM  31 5
M  ZZI  31 1
M  ZZM  32 5
M  ZZI  32 1
M  ZZM  33 9
M  ZZI  33 220
M  ZZM  34 63
M  ZZI  34 104
M  ZZM  35 39
M  ZZI  35 215
M  ZZM  36 2
M  ZZI  36 120
M  ZZM  37 1
M  ZZI  37 111
M  ZZM  38 5
M  ZZI  38 1
M  ZZM  39 5
M  ZZI  39 1
M  ZZM  40 5
M  ZZI  40 1
M  ZZM  41 65
M  ZZI  41 207
M  ZZM  42 64
M  ZZI  42 105
M  ZZM  43 5
M  ZZI  43 1
M  ZZM  44 66
M  ZZI  44 222
M  END
> <NAME>
Z61980600

> <Score>
-25.108495

> <Natom>
44

> <Nflex>
3

> <Hbond>
-2.5789

> <Hphob>
-6.400739

> <VwInt>
-30.217185

> <Eintl>
4.642984

> <Dsolv>
11.991857

> <SolEl>
7.76956

> <mfScore>
-97.52797

> <RecConf>
1

> <molLogP>
1.0613

$$$$
Z915393136
  MOLSOFT 11211612053D

 44 46  0  0  1  0  0  0  0  0999 V2000
  -32.3828   12.1575   70.4597 H   0  0  0
  -33.0301   11.3938   70.0412 C   0  0  0
  -33.2372   11.3288   68.6472 C   0  0  0
  -32.7762   12.0213   67.5536 C   0  0  0
  -32.0939   12.8571   67.5478 H   0  0  0
  -33.2844   11.5031   66.3913 N   0  0  0
  -34.0758   10.5281   66.7861 C   0  0  0
  -34.0752   10.3680   68.1570 N   0  0  0
  -34.7177    9.4564   68.9659 C   0  0  0
  -35.3761    8.7272   68.5092 H   0  0  0
  -34.5014    9.4852   70.2828 C   0  0  0
  -34.9714    8.7745   70.9542 H   0  0  0
  -33.6356   10.4951   70.8285 C   0  0  0
  -33.4914   10.5167   71.9033 H   0  0  0
  -35.0299    9.5398   65.7071 S   0  0  0
  -34.1117    7.9503   65.7788 C   0  0  2
  -33.5218    7.9452   66.7003 H   0  0  0
  -33.1483    7.6922   64.5992 C   0  0  0
  -32.7347    6.6891   64.7292 H   0  0  0
  -31.9709    8.6632   64.5991 C   0  0  0
  -32.2864    9.6786   64.3447 H   0  0  0
  -31.2221    8.3624   63.8597 H   0  0  0
  -31.4774    8.6893   65.5754 H   0  0  0
  -33.8175    7.7113   63.2287 C   0  0  0
  -34.5332    6.8950   63.1236 H   0  0  0
  -33.0758    7.5889   62.4343 H   0  0  0
  -34.3486    8.6473   63.0485 H   0  0  0
  -35.1384    6.8334   65.8976 C   0  0  0
  -36.0696    6.7012   65.1160 O   0  0  0
  -34.9241    5.9941   66.9696 N   0  0  0
  -34.1690    6.1688   67.6232 H   0  0  0
  -35.8450    4.9216   67.2548 C   0  0  0
  -36.2545    4.5293   66.3173 H   0  0  0
  -36.6758    5.3602   67.8176 H   0  0  0
  -35.2003    3.8226   68.0447 C   0  0  0
  -35.2304    3.8264   69.4304 C   0  0  0
  -35.7244    4.6270   69.9731 H   0  0  0
  -34.6865    2.8856   70.2110 N   0  0  0
  -34.0781    1.8845   69.5655 C   0  0  0
  -33.6499    1.1176   70.2027 H   0  0  0
  -33.9736    1.7924   68.1943 C   0  0  0
  -33.4561    0.9565   67.7388 H   0  0  0
  -34.5406    2.7790   67.4147 C   0  0  0
  -34.4746    2.7246   66.3317 H   0  0  0
  2  1  1
  2  3  1
  2 13  2
  3  4  2
  3  8  1
  4  5  1
  4  6  1
  6  7  2
  7  8  1
  7 15  1
  8  9  1
  9 10  1
  9 11  2
 11 12  1
 11 13  1
 13 14  1
 16 15  1
 16 17  1
 16 18  1
 16 28  1
 18 19  1
 18 20  1
 18 24  1
 20 21  1
 20 22  1
 20 23  1
 24 25  1
 24 26  1
 24 27  1
 28 29  2
 28 30  1
 30 31  1
 30 32  1
 32 33  1
 32 34  1
 32 35  1
 35 36  1
 35 43  2
 36 37  1
 36 38  2
 38 39  1
 39 40  1
 39 41  2
 41 42  1
 41 43  1
 43 44  1
M  ZZC   1 h1
M  ZZC   2 c18
M  ZZC   3 c14
M  ZZC   4 c13
M  ZZC   5 h5
M  ZZC   6 n3
M  ZZC   7 c12
M  ZZC   8 n4
M  ZZC   9 c15
M  ZZC  10 h4
M  ZZC  11 c16
M  ZZC  12 h3
M  ZZC  13 c17
M  ZZC  14 h2
M  ZZC  15 s1
M  ZZC  16 c4
M  ZZC  17 h20
M  ZZC  18 c2
M  ZZC  19 h16
M  ZZC  20 c3
M  ZZC  21 h13
M  ZZC  22 h14
M  ZZC  23 h15
M  ZZC  24 c1
M  ZZC  25 h17
M  ZZC  26 h18
M  ZZC  27 h19
M  ZZC  28 c5
M  ZZC  29 o1
M  ZZC  30 n1
M  ZZC  31 h12
M  ZZC  32 c6
M  ZZC  33 h10
M  ZZC  34 h11
M  ZZC  35 c7
M  ZZC  36 c11
M  ZZC  37 h6
M  ZZC  38 n2
M  ZZC  39 c10
M  ZZC  40 h7
M  ZZC  41 c9
M  ZZC  42 h8
M  ZZC  43 c8
M  ZZC  44 h9
M  ZZM   1 5
M  ZZI   1 1
M  ZZM   2 2
M  ZZI   2 120
M  ZZM   3 63
M  ZZI   3 104
M  ZZM   4 64
M  ZZI   4 105
M  ZZM   5 5
M  ZZI   5 1
M  ZZM   6 66
M  ZZI   6 222
M  ZZM   7 63
M  ZZI   7 104
M  ZZM   8 39
M  ZZI   8 215
M  ZZM   9 2
M  ZZI   9 120
M  ZZM  10 5
M  ZZI  10 1
M  ZZM  11 2
M  ZZI  11 120
M  ZZM  12 5
M  ZZI  12 1
M  ZZM  13 2
M  ZZI  13 120
M  ZZM  14 5
M  ZZI  14 1
M  ZZM  15 15
M  ZZI  15 240
M  ZZM  16 1
M  ZZI  16 113
M  ZZM  17 5
M  ZZI  17 1
M  ZZM  18 1
M  ZZI  18 113
M  ZZM  19 5
M  ZZI  19 1
M  ZZM  20 1
M  ZZI  20 111
M  ZZM  21 5
M  ZZI  21 1
M  ZZM  22 5
M  ZZI  22 1
M  ZZM  23 5
M  ZZI  23 1
M  ZZM  24 1
M  ZZI  24 111
M  ZZM  25 5
M  ZZI  25 1
M  ZZM  26 5
M  ZZI  26 1
M  ZZM  27 5
M  ZZI  27 1
M  ZZM  28 3
M  ZZI  28 121
M  ZZM  29 7
M  ZZI  29 81
M  ZZM  30 10
M  ZZI  30 211
M  ZZM  31 28
M  ZZI  31 11
M  ZZM  32 1
M  ZZI  32 112
M  ZZM  33 5
M  ZZI  33 1
M  ZZM  34 5
M  ZZI  34 1
M  ZZM  35 37
M  ZZI  35 124
M  ZZM  36 37
M  ZZI  36 125
M  ZZM  37 5
M  ZZI  37 1
M  ZZM  38 38
M  ZZI  38 223
M  ZZM  39 37
M  ZZI  39 125
M  ZZM  40 5
M  ZZI  40 1
M  ZZM  41 37
M  ZZI  41 125
M  ZZM  42 5
M  ZZI  42 1
M  ZZM  43 37
M  ZZI  43 125
M  ZZM  44 5
M  ZZI  44 1
M  END
> <NAME>
Z915393136

> <Score>
-25.065777

> <Natom>
44

> <Nflex>
5

> <Hbond>
-3.150462

> <Hphob>
-6.661721

> <VwInt>
-28.96036

> <Eintl>
8.675383

> <Dsolv>
11.041514

> <SolEl>
7.647682

> <mfScore>
-62.299108

> <RecConf>
1

> <molLogP>
3.004672

$$$$
Z114048398
  MOLSOFT 11211612053D

 45 48  0  0  0  0  0  0  0  0999 V2000
  -29.7397    9.1397   70.7379 H   0  0  0
  -30.4099    9.9861   70.7856 C   0  0  0
  -30.5210   11.0750   71.6200 C   0  0  0
  -29.8844   11.3011   72.4632 H   0  0  0
  -31.6296   11.8213   71.1527 C   0  0  0
  -32.0196   12.7418   71.5635 H   0  0  0
  -32.1203   11.1426   70.0565 C   0  0  0
  -31.3711   10.0241   69.8232 O   0  0  0
  -33.2472   11.3986   69.1231 C   0  0  0
  -32.8629   11.7207   68.1531 H   0  0  0
  -33.9075   12.1842   69.5029 H   0  0  0
  -34.0619   10.1932   68.9452 N   0  0  0
  -34.5878    9.4328   69.9617 C   0  0  0
  -34.4460    9.6678   71.0086 H   0  0  0
  -35.2658    8.4020   69.4988 N   0  0  0
  -35.1681    8.5133   68.1407 C   0  0  0
  -34.4353    9.5942   67.7680 C   0  0  0
  -34.1573    9.9113   66.4174 C   0  0  0
  -33.5322   10.9019   66.0625 O   0  0  0
  -34.6709    8.9667   65.5468 N   0  0  0
  -34.2855    9.0915   64.1508 C   0  0  0
  -35.0296    8.6261   63.5013 H   0  0  0
  -34.1734   10.1432   63.8778 H   0  0  0
  -32.9558    8.3815   63.9662 C   0  0  0
  -32.1051    8.2746   64.8356 O   0  0  0
  -32.7662    7.8975   62.7063 N   0  0  0
  -31.9029    7.4152   62.4915 H   0  0  0
  -33.4557    7.9702   61.9682 H   0  0  0
  -35.5160    7.9083   65.8786 C   0  0  0
  -36.0357    7.2247   65.0080 O   0  0  0
  -35.7429    7.6630   67.2221 N   0  0  0
  -36.5708    6.5281   67.6178 C   0  0  0
  -37.3511    6.3766   66.8644 H   0  0  0
  -37.0973    6.7689   68.5452 H   0  0  0
  -35.7977    5.2423   67.7798 C   0  0  0
  -35.4660    4.4629   66.6788 C   0  0  0
  -35.7538    4.7715   65.6792 H   0  0  0
  -34.7760    3.2786   66.8327 C   0  0  0
  -34.5269    2.6801   65.9626 H   0  0  0
  -34.4110    2.8485   68.0902 C   0  0  0
  -33.8736    1.9130   68.2100 H   0  0  0
  -34.7305    3.6136   69.1921 C   0  0  0
  -34.4440    3.2780   70.1835 H   0  0  0
  -35.4118    4.8051   69.0391 C   0  0  0
  -35.6504    5.3943   69.9199 H   0  0  0
  2  1  1
  2  3  2
  2  8  1
  3  4  1
  3  5  1
  5  6  1
  5  7  2
  7  8  1
  7  9  1
  9 10  1
  9 11  1
  9 12  1
 12 13  1
 12 17  1
 13 14  1
 13 15  2
 15 16  1
 16 17  2
 16 31  1
 17 18  1
 18 19  2
 18 20  1
 20 21  1
 20 29  1
 21 22  1
 21 23  1
 21 24  1
 24 25  2
 24 26  1
 26 27  1
 26 28  1
 29 30  2
 29 31  1
 31 32  1
 32 33  1
 32 34  1
 32 35  1
 35 36  2
 35 44  1
 36 37  1
 36 38  1
 38 39  1
 38 40  2
 40 41  1
 40 42  1
 42 43  1
 42 44  2
 44 45  1
M  ZZC   1 h1
M  ZZC   2 c19
M  ZZC   3 c18
M  ZZC   4 h2
M  ZZC   5 c17
M  ZZC   6 h3
M  ZZC   7 c16
M  ZZC   8 o4
M  ZZC   9 c15
M  ZZC  10 h4
M  ZZC  11 h5
M  ZZC  12 n4
M  ZZC  13 c14
M  ZZC  14 h6
M  ZZC  15 n5
M  ZZC  16 c8
M  ZZC  17 c9
M  ZZC  18 c10
M  ZZC  19 o1
M  ZZC  20 n2
M  ZZC  21 c12
M  ZZC  22 h10
M  ZZC  23 h9
M  ZZC  24 c13
M  ZZC  25 o3
M  ZZC  26 n3
M  ZZC  27 h7
M  ZZC  28 h8
M  ZZC  29 c11
M  ZZC  30 o2
M  ZZC  31 n1
M  ZZC  32 c7
M  ZZC  33 h11
M  ZZC  34 h12
M  ZZC  35 c4
M  ZZC  36 c3
M  ZZC  37 h15
M  ZZC  38 c2
M  ZZC  39 h16
M  ZZC  40 c1
M  ZZC  41 h17
M  ZZC  42 c6
M  ZZC  43 h13
M  ZZC  44 c5
M  ZZC  45 h14
M  ZZM   1 5
M  ZZI   1 1
M  ZZM   2 63
M  ZZI   2 104
M  ZZM   3 64
M  ZZI   3 105
M  ZZM   4 5
M  ZZI   4 1
M  ZZM   5 64
M  ZZI   5 105
M  ZZM   6 5
M  ZZI   6 1
M  ZZM   7 63
M  ZZI   7 104
M  ZZM   8 59
M  ZZI   8 56
M  ZZM   9 1
M  ZZI   9 112
M  ZZM  10 5
M  ZZI  10 1
M  ZZM  11 5
M  ZZI  11 1
M  ZZM  12 39
M  ZZI  12 215
M  ZZM  13 63
M  ZZI  13 104
M  ZZM  14 5
M  ZZI  14 6
M  ZZM  15 66
M  ZZI  15 222
M  ZZM  16 64
M  ZZI  16 105
M  ZZM  17 63
M  ZZI  17 104
M  ZZM  18 3
M  ZZI  18 121
M  ZZM  19 7
M  ZZI  19 81
M  ZZM  20 10
M  ZZI  20 192
M  ZZM  21 1
M  ZZI  21 112
M  ZZM  22 5
M  ZZI  22 1
M  ZZM  23 5
M  ZZI  23 1
M  ZZM  24 3
M  ZZI  24 121
M  ZZM  25 7
M  ZZI  25 81
M  ZZM  26 10
M  ZZI  26 212
M  ZZM  27 28
M  ZZI  27 11
M  ZZM  28 28
M  ZZI  28 11
M  ZZM  29 3
M  ZZI  29 121
M  ZZM  30 7
M  ZZI  30 81
M  ZZM  31 10
M  ZZI  31 192
M  ZZM  32 1
M  ZZI  32 112
M  ZZM  33 5
M  ZZI  33 1
M  ZZM  34 5
M  ZZI  34 1
M  ZZM  35 37
M  ZZI  35 124
M  ZZM  36 37
M  ZZI  36 125
M  ZZM  37 5
M  ZZI  37 1
M  ZZM  38 37
M  ZZI  38 125
M  ZZM  39 5
M  ZZI  39 1
M  ZZM  40 37
M  ZZI  40 125
M  ZZM  41 5
M  ZZI  41 1
M  ZZM  42 37
M  ZZI  42 125
M  ZZM  43 5
M  ZZI  43 1
M  ZZM  44 37
M  ZZI  44 125
M  ZZM  45 5
M  ZZI  45 1
M  END
> <NAME>
Z114048398

> <Score>
-36.099484

> <Natom>
45

> <Nflex>
6

> <Hbond>
-7.728392

> <Hphob>
-6.562454

> <VwInt>
-32.857093

> <Eintl>
5.472109

> <Dsolv>
17.323248

> <SolEl>
6.234618

> <mfScore>
-79.975229

> <RecConf>
1

> <molLogP>
0.857061

$$$$
Z18452549
  MOLSOFT 11211612053D

 45 48  0  0  1  0  0  0  0  0999 V2000
  -36.2515    6.2022   65.0098 O   0  0  0
  -35.5612    6.3056   66.0157 C   0  0  0
  -34.7628    7.5705   66.2972 C   0  0  1
  -34.3641    7.4899   67.3105 H   0  0  0
  -33.5912    7.7595   65.3597 C   0  0  0
  -33.7306    7.7037   63.9775 C   0  0  0
  -34.6864    7.4738   63.5173 H   0  0  0
  -32.6575    7.9677   63.1547 C   0  0  0
  -32.7766    7.9110   62.0791 H   0  0  0
  -31.4345    8.3069   63.6870 C   0  0  0
  -30.5948    8.5174   63.0325 H   0  0  0
  -31.2806    8.3649   65.0537 C   0  0  0
  -30.3179    8.6285   65.4798 H   0  0  0
  -32.3442    8.0822   65.8821 C   0  0  0
  -32.1929    8.1475   66.9554 H   0  0  0
  -35.8934    9.0091   66.2664 S   0  0  0
  -34.8018   10.2192   66.8624 C   0  0  0
  -34.0132   10.9104   66.0704 N   0  0  0
  -33.1844   11.7487   66.7883 N   0  0  0
  -33.3917   11.6612   68.0849 C   0  0  0
  -34.6196   10.5637   68.5160 S   0  0  0
  -32.7149   12.3273   69.0316 N   0  0  0
  -32.9287   12.2362   70.0205 H   0  0  0
  -31.9086   12.8940   68.7860 H   0  0  0
  -35.4755    5.2013   66.9507 C   0  0  0
  -35.4878    5.2027   68.3821 C   0  0  0
  -35.6125    6.1926   69.3509 C   0  0  0
  -35.7374    7.2370   69.0911 H   0  0  0
  -35.5855    5.8326   70.6789 C   0  0  0
  -35.6763    6.6010   71.4407 H   0  0  0
  -35.4466    4.5183   71.0594 C   0  0  0
  -35.4195    4.2859   72.1198 H   0  0  0
  -35.3509    3.4944   70.1314 C   0  0  0
  -35.1770    2.0709   70.5843 C   0  0  0
  -35.6999    1.3909   69.9038 H   0  0  0
  -35.6383    1.9362   71.5681 H   0  0  0
  -33.7036    1.7090   70.6482 C   0  0  0
  -33.2464    1.7596   69.6551 H   0  0  0
  -33.5742    0.6955   71.0315 H   0  0  0
  -33.1530    2.3916   71.3032 H   0  0  0
  -35.3855    3.8821   68.7989 C   0  0  0
  -35.3502    3.1053   67.6698 N   0  0  0
  -35.3454    2.0922   67.6598 H   0  0  0
  -35.4033    3.8831   66.5546 C   0  0  0
  -35.3869    3.4301   65.5738 H   0  0  0
  2  1  2
  3  2  1
  2 25  1
  3  4  1
  3  5  1
  3 16  1
  5  6  1
  5 14  2
  6  7  1
  6  8  2
  8  9  1
  8 10  1
 10 11  1
 10 12  2
 12 13  1
 12 14  1
 14 15  1
 16 17  1
 17 18  2
 17 21  1
 18 19  1
 19 20  2
 20 21  1
 20 22  1
 22 23  1
 22 24  1
 25 26  1
 25 44  2
 26 27  1
 26 41  2
 27 28  1
 27 29  2
 29 30  1
 29 31  1
 31 32  1
 31 33  2
 33 34  1
 33 41  1
 34 35  1
 34 36  1
 34 37  1
 37 38  1
 37 39  1
 37 40  1
 41 42  1
 42 43  1
 42 44  1
 44 45  1
M  ZZC   1 o1
M  ZZC   2 c11
M  ZZC   3 c12
M  ZZC   4 h17
M  ZZC   5 c13
M  ZZC   6 c14
M  ZZC   7 h7
M  ZZC   8 c15
M  ZZC   9 h6
M  ZZC  10 c16
M  ZZC  11 h5
M  ZZC  12 c17
M  ZZC  13 h4
M  ZZC  14 c18
M  ZZC  15 h3
M  ZZC  16 s1
M  ZZC  17 c19
M  ZZC  18 n2
M  ZZC  19 n3
M  ZZC  20 c20
M  ZZC  21 s2
M  ZZC  22 n4
M  ZZC  23 h1
M  ZZC  24 h2
M  ZZC  25 c10
M  ZZC  26 c7
M  ZZC  27 c6
M  ZZC  28 h9
M  ZZC  29 c5
M  ZZC  30 h10
M  ZZC  31 c4
M  ZZC  32 h11
M  ZZC  33 c3
M  ZZC  34 c2
M  ZZC  35 h12
M  ZZC  36 h13
M  ZZC  37 c1
M  ZZC  38 h14
M  ZZC  39 h15
M  ZZC  40 h16
M  ZZC  41 c8
M  ZZC  42 n1
M  ZZC  43 h18
M  ZZC  44 c9
M  ZZC  45 h8
M  ZZM   1 7
M  ZZI   1 80
M  ZZM   2 3
M  ZZI   2 122
M  ZZM   3 1
M  ZZI   3 113
M  ZZM   4 5
M  ZZI   4 1
M  ZZM   5 37
M  ZZI   5 124
M  ZZM   6 37
M  ZZI   6 125
M  ZZM   7 5
M  ZZI   7 1
M  ZZM   8 37
M  ZZI   8 125
M  ZZM   9 5
M  ZZI   9 1
M  ZZM  10 37
M  ZZI  10 125
M  ZZM  11 5
M  ZZI  11 1
M  ZZM  12 37
M  ZZI  12 125
M  ZZM  13 5
M  ZZI  13 1
M  ZZM  14 37
M  ZZI  14 125
M  ZZM  15 5
M  ZZI  15 1
M  ZZM  16 15
M  ZZI  16 240
M  ZZM  17 63
M  ZZI  17 104
M  ZZM  18 66
M  ZZI  18 222
M  ZZM  19 66
M  ZZI  19 222
M  ZZM  20 63
M  ZZI  20 104
M  ZZM  21 44
M  ZZI  21 248
M  ZZM  22 40
M  ZZI  22 224
M  ZZM  23 28
M  ZZI  23 11
M  ZZM  24 28
M  ZZI  24 11
M  ZZM  25 64
M  ZZI  25 105
M  ZZM  26 64
M  ZZI  26 105
M  ZZM  27 37
M  ZZI  27 125
M  ZZM  28 5
M  ZZI  28 1
M  ZZM  29 37
M  ZZI  29 125
M  ZZM  30 5
M  ZZI  30 1
M  ZZM  31 37
M  ZZI  31 125
M  ZZM  32 5
M  ZZI  32 1
M  ZZM  33 37
M  ZZI  33 124
M  ZZM  34 1
M  ZZI  34 112
M  ZZM  35 5
M  ZZI  35 1
M  ZZM  36 5
M  ZZI  36 1
M  ZZM  37 1
M  ZZI  37 111
M  ZZM  38 5
M  ZZI  38 1
M  ZZM  39 5
M  ZZI  39 1
M  ZZM  40 5
M  ZZI  40 1
M  ZZM  41 63
M  ZZI  41 104
M  ZZM  42 39
M  ZZI  42 215
M  ZZM  43 23
M  ZZI  43 10
M  ZZM  44 63
M  ZZI  44 104
M  ZZM  45 5
M  ZZI  45 1
M  END
> <NAME>
Z18452549

> <Score>
-31.266633

> <Natom>
45

> <Nflex>
4

> <Hbond>
-4.228187

> <Hphob>
-6.818598

> <VwInt>
-33.907371

> <Eintl>
7.979553

> <Dsolv>
15.620582

> <SolEl>
5.744053

> <mfScore>
-100.940609

> <RecConf>
1

> <molLogP>
4.43273

$$$$
Z56824631
  MOLSOFT 11211612053D

 45 47  0  0  0  0  0  0  0  0999 V2000
  -31.9507   10.4216   68.7229 O   0  0  0
  -33.0024   10.9683   67.8876 S   0  0  0
  -33.0151   12.3591   67.4844 O   0  0  0
  -33.0114   10.0170   66.3480 C   0  0  0
  -34.0947   10.1211   65.4969 C   0  0  0
  -34.9508   10.7353   65.7428 H   0  0  0
  -34.1043    9.3943   64.3289 C   0  0  0
  -34.9747    9.4462   63.6860 H   0  0  0
  -33.0319    8.5975   63.9757 C   0  0  0
  -33.0744    7.8931   62.7601 N   0  0  0
  -32.4554    7.0963   62.6428 H   0  0  0
  -33.9316    7.8954   62.2138 H   0  0  0
  -31.8829    8.6111   64.7667 C   0  0  0
  -31.9110    9.2526   65.9951 C   0  0  0
  -31.0472    9.1901   66.6485 H   0  0  0
  -30.7330    7.8973   64.3830 N   0  0  0
  -29.8673    8.0802   64.8846 H   0  0  0
  -30.6505    7.6415   63.4008 H   0  0  0
  -34.5269   10.6178   68.6044 N   0  0  0
  -35.2934   11.0659   68.0924 H   0  0  0
  -34.7322    9.2189   68.8749 C   0  0  0
  -34.3294    8.5903   69.9846 C   0  0  0
  -33.6050    9.1816   71.1566 C   0  0  0
  -32.6363    8.6907   71.2896 H   0  0  0
  -34.1815    9.0594   72.0776 H   0  0  0
  -33.4251   10.2524   71.0319 H   0  0  0
  -34.7570    7.2813   69.9798 N   0  0  0
  -35.2920    6.6284   71.1832 C   0  0  0
  -34.4726    6.2669   71.8118 H   0  0  0
  -35.9476    5.7860   70.9490 H   0  0  0
  -35.8903    7.3321   71.7700 H   0  0  0
  -35.3741    7.0344   68.7378 N   0  0  0
  -35.5185    8.2446   68.0730 C   0  0  0
  -36.0866    8.5254   67.0251 O   0  0  0
  -35.3983    5.7435   68.1204 C   0  0  0
  -34.8786    4.6127   68.7446 C   0  0  0
  -34.4834    4.6544   69.7501 H   0  0  0
  -34.8083    3.4022   68.0852 C   0  0  0
  -34.3822    2.5349   68.5801 H   0  0  0
  -35.2599    3.2958   66.7905 C   0  0  0
  -35.1862    2.3515   66.2633 H   0  0  0
  -35.8095    4.3944   66.1719 C   0  0  0
  -36.1867    4.3116   65.1605 H   0  0  0
  -35.8808    5.6050   66.8257 C   0  0  0
  -36.3155    6.4421   66.2920 H   0  0  0
  2  1  2
  2  3  2
  2  4  1
  2 19  1
  4  5  2
  4 14  1
  5  6  1
  5  7  1
  7  8  1
  7  9  2
  9 10  1
  9 13  1
 10 11  1
 10 12  1
 13 14  2
 13 16  1
 14 15  1
 16 17  1
 16 18  1
 19 20  1
 19 21  1
 21 22  2
 21 33  1
 22 23  1
 22 27  1
 23 24  1
 23 25  1
 23 26  1
 27 28  1
 27 32  1
 28 29  1
 28 30  1
 28 31  1
 32 33  1
 32 35  1
 33 34  2
 35 36  1
 35 44  2
 36 37  1
 36 38  2
 38 39  1
 38 40  1
 40 41  1
 40 42  2
 42 43  1
 42 44  1
 44 45  1
M  ZZC   1 o2
M  ZZC   2 s1
M  ZZC   3 o3
M  ZZC   4 c12
M  ZZC   5 c13
M  ZZC   6 h7
M  ZZC   7 c14
M  ZZC   8 h6
M  ZZC   9 c15
M  ZZC  10 n5
M  ZZC  11 h1
M  ZZC  12 h2
M  ZZC  13 c16
M  ZZC  14 c17
M  ZZC  15 h5
M  ZZC  16 n4
M  ZZC  17 h3
M  ZZC  18 h4
M  ZZC  19 n3
M  ZZC  20 h8
M  ZZC  21 c3
M  ZZC  22 c2
M  ZZC  23 c1
M  ZZC  24 h17
M  ZZC  25 h18
M  ZZC  26 h19
M  ZZC  27 n2
M  ZZC  28 c5
M  ZZC  29 h14
M  ZZC  30 h15
M  ZZC  31 h16
M  ZZC  32 n1
M  ZZC  33 c4
M  ZZC  34 o1
M  ZZC  35 c6
M  ZZC  36 c11
M  ZZC  37 h9
M  ZZC  38 c10
M  ZZC  39 h10
M  ZZC  40 c9
M  ZZC  41 h11
M  ZZC  42 c8
M  ZZC  43 h12
M  ZZC  44 c7
M  ZZC  45 h13
M  ZZM   1 32
M  ZZI   1 73
M  ZZM   2 18
M  ZZI   2 250
M  ZZM   3 32
M  ZZI   3 73
M  ZZM   4 37
M  ZZI   4 124
M  ZZM   5 37
M  ZZI   5 125
M  ZZM   6 5
M  ZZI   6 1
M  ZZM   7 37
M  ZZI   7 125
M  ZZM   8 5
M  ZZI   8 1
M  ZZM   9 37
M  ZZI   9 124
M  ZZM  10 40
M  ZZI  10 224
M  ZZM  11 28
M  ZZI  11 11
M  ZZM  12 28
M  ZZI  12 11
M  ZZM  13 37
M  ZZI  13 124
M  ZZM  14 37
M  ZZI  14 125
M  ZZM  15 5
M  ZZI  15 1
M  ZZM  16 40
M  ZZI  16 224
M  ZZM  17 28
M  ZZI  17 11
M  ZZM  18 28
M  ZZI  18 11
M  ZZM  19 43
M  ZZI  19 196
M  ZZM  20 28
M  ZZI  20 11
M  ZZM  21 2
M  ZZI  21 120
M  ZZM  22 2
M  ZZI  22 120
M  ZZM  23 1
M  ZZI  23 111
M  ZZM  24 5
M  ZZI  24 1
M  ZZM  25 5
M  ZZI  25 1
M  ZZM  26 5
M  ZZI  26 1
M  ZZM  27 40
M  ZZI  27 193
M  ZZM  28 1
M  ZZI  28 111
M  ZZM  29 5
M  ZZI  29 1
M  ZZM  30 5
M  ZZI  30 1
M  ZZM  31 5
M  ZZI  31 1
M  ZZM  32 10
M  ZZI  32 191
M  ZZM  33 3
M  ZZI  33 121
M  ZZM  34 7
M  ZZI  34 81
M  ZZM  35 37
M  ZZI  35 124
M  ZZM  36 37
M  ZZI  36 125
M  ZZM  37 5
M  ZZI  37 1
M  ZZM  38 37
M  ZZI  38 125
M  ZZM  39 5
M  ZZI  39 1
M  ZZM  40 37
M  ZZI  40 125
M  ZZM  41 5
M  ZZI  41 1
M  ZZM  42 37
M  ZZI  42 125
M  ZZM  43 5
M  ZZI  43 1
M  ZZM  44 37
M  ZZI  44 125
M  ZZM  45 5
M  ZZI  45 1
M  END
> <NAME>
Z56824631

> <Score>
-29.963064

> <Natom>
45

> <Nflex>
4

> <Hbond>
-6.398402

> <Hphob>
-6.073451

> <VwInt>
-30.916874

> <Eintl>
9.984128

> <Dsolv>
13.676007

> <SolEl>
12.960565

> <mfScore>
-84.01516

> <RecConf>
1

> <molLogP>
0.918651

$$$$
Z281155238
  MOLSOFT 11211612053D

 45 47  0  0  1  0  0  0  0  0999 V2000
  -34.2794    8.2727   62.7440 H   0  0  0
  -34.7320    7.8732   63.5098 O   0  0  0
  -34.7074    8.7891   64.6146 C   0  0  1
  -34.9431    9.7882   64.2332 H   0  0  0
  -35.7982    8.3789   65.6100 C   0  0  0
  -36.7830    8.4087   65.1361 H   0  0  0
  -35.8237    9.0557   66.4699 H   0  0  0
  -35.5478    7.0335   66.0345 O   0  0  0
  -36.3311    6.6571   67.1704 C   0  0  0
  -36.2106    7.4198   67.9468 H   0  0  0
  -37.3857    6.5872   66.8824 H   0  0  0
  -35.8348    5.3258   67.6667 C   0  0  0
  -36.0211    4.9499   68.9919 C   0  0  0
  -36.7114    5.8629   69.7969 O   0  0  0
  -37.0444    5.3698   71.0986 C   0  0  0
  -37.6692    6.1203   71.5907 H   0  0  0
  -36.1443    5.2362   71.7072 H   0  0  0
  -37.6281    4.4453   71.0372 H   0  0  0
  -35.5329    3.7293   69.4486 C   0  0  0
  -35.6397    3.4162   70.4802 H   0  0  0
  -34.8926    2.8721   68.5766 C   0  0  0
  -34.5164    1.9168   68.9285 H   0  0  0
  -34.7413    3.2218   67.2529 C   0  0  0
  -34.2502    2.5417   66.5643 H   0  0  0
  -35.2114    4.4354   66.8002 C   0  0  0
  -35.0779    4.6875   65.7527 H   0  0  0
  -33.3070    8.7813   65.2460 C   0  0  0
  -32.5651    9.1204   64.5150 H   0  0  0
  -33.0153    7.7589   65.5090 H   0  0  0
  -33.2170    9.6443   66.4232 N   0  0  0
  -33.1899    9.0718   67.6946 C   0  0  0
  -33.1537    7.8723   67.9308 O   0  0  0
  -33.2304    9.9937   68.8399 C   0  0  0
  -33.2450    9.5211   70.1437 C   0  0  0
  -33.2274    8.4557   70.3565 H   0  0  0
  -33.2817   10.4297   71.1861 C   0  0  0
  -33.2922   10.0723   72.2112 H   0  0  0
  -33.3053   11.7898   70.9335 C   0  0  0
  -33.3331   12.4941   71.7599 H   0  0  0
  -33.3022   12.2554   69.6337 C   0  0  0
  -33.3276   13.3217   69.4371 H   0  0  0
  -33.2672   11.3407   68.5992 C   0  0  0
  -33.2590   11.7930   67.2131 C   0  0  0
  -33.2874   12.8793   67.0519 H   0  0  0
  -33.2258   11.0039   66.1850 N   0  0  0
  2  1  1
  3  2  1
  3  4  1
  3  5  1
  3 27  1
  5  6  1
  5  7  1
  5  8  1
  8  9  1
  9 10  1
  9 11  1
  9 12  1
 12 13  1
 12 25  2
 13 14  1
 13 19  2
 14 15  1
 15 16  1
 15 17  1
 15 18  1
 19 20  1
 19 21  1
 21 22  1
 21 23  2
 23 24  1
 23 25  1
 25 26  1
 27 28  1
 27 29  1
 27 30  1
 30 31  1
 30 45  1
 31 32  2
 31 33  1
 33 34  2
 33 42  1
 34 35  1
 34 36  1
 36 37  1
 36 38  2
 38 39  1
 38 40  1
 40 41  1
 40 42  2
 42 43  1
 43 44  1
 43 45  2
M  ZZC   1 h1
M  ZZC   2 o4
M  ZZC   3 c10
M  ZZC   4 h20
M  ZZC   5 c9
M  ZZC   6 h10
M  ZZC   7 h9
M  ZZC   8 o2
M  ZZC   9 c8
M  ZZC  10 h11
M  ZZC  11 h12
M  ZZC  12 c7
M  ZZC  13 c2
M  ZZC  14 o1
M  ZZC  15 c1
M  ZZC  16 h17
M  ZZC  17 h18
M  ZZC  18 h19
M  ZZC  19 c3
M  ZZC  20 h16
M  ZZC  21 c4
M  ZZC  22 h15
M  ZZC  23 c5
M  ZZC  24 h14
M  ZZC  25 c6
M  ZZC  26 h13
M  ZZC  27 c11
M  ZZC  28 h7
M  ZZC  29 h8
M  ZZC  30 n1
M  ZZC  31 c12
M  ZZC  32 o3
M  ZZC  33 c13
M  ZZC  34 c14
M  ZZC  35 h6
M  ZZC  36 c15
M  ZZC  37 h5
M  ZZC  38 c16
M  ZZC  39 h4
M  ZZC  40 c17
M  ZZC  41 h3
M  ZZC  42 c18
M  ZZC  43 c19
M  ZZC  44 h2
M  ZZC  45 n2
M  ZZM   1 21
M  ZZI   1 20
M  ZZM   2 6
M  ZZI   2 60
M  ZZM   3 1
M  ZZI   3 113
M  ZZM   4 5
M  ZZI   4 1
M  ZZM   5 1
M  ZZI   5 112
M  ZZM   6 5
M  ZZI   6 1
M  ZZM   7 5
M  ZZI   7 1
M  ZZM   8 6
M  ZZI   8 65
M  ZZM   9 1
M  ZZI   9 112
M  ZZM  10 5
M  ZZI  10 1
M  ZZM  11 5
M  ZZI  11 1
M  ZZM  12 37
M  ZZI  12 124
M  ZZM  13 37
M  ZZI  13 124
M  ZZM  14 6
M  ZZI  14 59
M  ZZM  15 1
M  ZZI  15 111
M  ZZM  16 5
M  ZZI  16 1
M  ZZM  17 5
M  ZZI  17 1
M  ZZM  18 5
M  ZZI  18 1
M  ZZM  19 37
M  ZZI  19 125
M  ZZM  20 5
M  ZZI  20 1
M  ZZM  21 37
M  ZZI  21 125
M  ZZM  22 5
M  ZZI  22 1
M  ZZM  23 37
M  ZZI  23 125
M  ZZM  24 5
M  ZZI  24 1
M  ZZM  25 37
M  ZZI  25 125
M  ZZM  26 5
M  ZZI  26 1
M  ZZM  27 1
M  ZZI  27 112
M  ZZM  28 5
M  ZZI  28 1
M  ZZM  29 5
M  ZZI  29 1
M  ZZM  30 10
M  ZZI  30 192
M  ZZM  31 3
M  ZZI  31 121
M  ZZM  32 7
M  ZZI  32 81
M  ZZM  33 37
M  ZZI  33 124
M  ZZM  34 37
M  ZZI  34 125
M  ZZM  35 5
M  ZZI  35 1
M  ZZM  36 37
M  ZZI  36 125
M  ZZM  37 5
M  ZZI  37 1
M  ZZM  38 37
M  ZZI  38 125
M  ZZM  39 5
M  ZZI  39 1
M  ZZM  40 37
M  ZZI  40 125
M  ZZM  41 5
M  ZZI  41 1
M  ZZM  42 37
M  ZZI  42 124
M  ZZM  43 3
M  ZZI  43 121
M  ZZM  44 5
M  ZZI  44 1
M  ZZM  45 9
M  ZZI  45 220
M  END
> <NAME>
Z281155238

> <Score>
-29.73191

> <Natom>
45

> <Nflex>
7

> <Hbond>
-4.549716

> <Hphob>
-5.908196

> <VwInt>
-29.935273

> <Eintl>
8.317382

> <Dsolv>
12.059436

> <SolEl>
3.678879

> <mfScore>
-106.078305

> <RecConf>
1

> <molLogP>
2.27177

$$$$
Z275650978
  MOLSOFT 11211612053D

 45 47  0  0  1  0  0  0  0  0999 V2000
  -32.1257    8.0806   68.8977 F   0  0  0
  -31.4390    8.8216   67.9893 C   0  0  0
  -30.1392    8.4345   68.1165 F   0  0  0
  -31.4471   10.0909   68.4639 F   0  0  0
  -31.9766    8.7109   66.5770 C   0  0  0
  -31.0547    8.4071   65.5804 C   0  0  0
  -30.0099    8.2475   65.8320 H   0  0  0
  -31.4109    8.2876   64.2566 C   0  0  0
  -30.6651    8.0369   63.5077 H   0  0  0
  -32.7143    8.4837   63.8873 C   0  0  0
  -33.0063    8.3777   62.8473 H   0  0  0
  -33.6446    8.8129   64.8443 C   0  0  0
  -34.6650    8.9765   64.5089 H   0  0  0
  -33.3250    8.9259   66.1983 C   0  0  0
  -34.4866    9.2499   67.1391 C   0  0  1
  -35.2684    9.7357   66.5430 H   0  0  0
  -35.1035    7.9932   67.7088 C   0  0  0
  -35.5819    6.9722   66.7354 C   0  0  0
  -36.2077    7.2350   65.7160 O   0  0  0
  -35.1405    5.7373   67.1060 O   0  0  0
  -35.4369    4.7428   66.1290 C   0  0  0
  -34.9097    4.9969   65.2056 H   0  0  0
  -36.5123    4.7201   65.9301 H   0  0  0
  -34.9936    3.3927   66.5920 C   0  0  0
  -35.0850    2.5914   65.8692 H   0  0  0
  -34.5104    3.0906   67.8032 C   0  0  0
  -34.3948    3.8355   68.5806 H   0  0  0
  -34.2199    2.0732   68.0394 H   0  0  0
  -35.2390    7.8016   69.0345 C   0  0  0
  -35.8469    6.5792   69.6684 C   0  0  0
  -36.2954    6.8184   70.6370 H   0  0  0
  -35.0791    5.8224   69.8511 H   0  0  0
  -36.6445    6.1428   69.0596 H   0  0  0
  -34.8324    8.7874   69.9013 N   0  0  0
  -34.9617    8.6394   70.9006 H   0  0  0
  -34.2923    9.9783   69.5107 C   0  0  0
  -34.1391   10.2495   68.2098 C   0  0  0
  -33.5435   11.5532   67.8189 C   0  0  0
  -33.3636   11.8490   66.6478 O   0  0  0
  -33.1600   12.3552   68.8524 N   0  0  0
  -32.6908   13.2178   68.6189 H   0  0  0
  -33.2560   12.0466   70.1711 C   0  0  0
  -32.8259   12.7707   71.0506 O   0  0  0
  -33.8612   10.8614   70.4464 N   0  0  0
  -33.9478   10.6088   71.4212 H   0  0  0
  2  1  1
  2  3  1
  2  4  1
  2  5  1
  5  6  2
  5 14  1
  6  7  1
  6  8  1
  8  9  1
  8 10  2
 10 11  1
 10 12  1
 12 13  1
 12 14  2
 15 14  1
 15 16  1
 15 17  1
 15 37  1
 17 18  1
 17 29  2
 18 19  2
 18 20  1
 20 21  1
 21 22  1
 21 23  1
 21 24  1
 24 25  1
 24 26  2
 26 27  1
 26 28  1
 29 30  1
 29 34  1
 30 31  1
 30 32  1
 30 33  1
 34 35  1
 34 36  1
 36 37  2
 36 44  1
 37 38  1
 38 39  2
 38 40  1
 40 41  1
 40 42  1
 42 43  2
 42 44  1
 44 45  1
M  ZZC   1 f1
M  ZZC   2 c15
M  ZZC   3 f2
M  ZZC   4 f3
M  ZZC   5 c14
M  ZZC   6 c13
M  ZZC   7 h6
M  ZZC   8 c12
M  ZZC   9 h7
M  ZZC  10 c11
M  ZZC  11 h8
M  ZZC  12 c10
M  ZZC  13 h9
M  ZZC  14 c9
M  ZZC  15 c4
M  ZZC  16 h16
M  ZZC  17 c3
M  ZZC  18 c16
M  ZZC  19 o3
M  ZZC  20 o4
M  ZZC  21 c17
M  ZZC  22 h4
M  ZZC  23 h5
M  ZZC  24 c18
M  ZZC  25 h3
M  ZZC  26 c19
M  ZZC  27 h1
M  ZZC  28 h2
M  ZZC  29 c2
M  ZZC  30 c1
M  ZZC  31 h11
M  ZZC  32 h12
M  ZZC  33 h13
M  ZZC  34 n3
M  ZZC  35 h10
M  ZZC  36 c6
M  ZZC  37 c5
M  ZZC  38 c8
M  ZZC  39 o2
M  ZZC  40 n2
M  ZZC  41 h14
M  ZZC  42 c7
M  ZZC  43 o1
M  ZZC  44 n1
M  ZZC  45 h15
M  ZZM   1 11
M  ZZI   1 90
M  ZZM   2 1
M  ZZI   2 110
M  ZZM   3 11
M  ZZI   3 90
M  ZZM   4 11
M  ZZI   4 90
M  ZZM   5 37
M  ZZI   5 124
M  ZZM   6 37
M  ZZI   6 125
M  ZZM   7 5
M  ZZI   7 1
M  ZZM   8 37
M  ZZI   8 125
M  ZZM   9 5
M  ZZI   9 1
M  ZZM  10 37
M  ZZI  10 125
M  ZZM  11 5
M  ZZI  11 1
M  ZZM  12 37
M  ZZI  12 125
M  ZZM  13 5
M  ZZI  13 1
M  ZZM  14 37
M  ZZI  14 124
M  ZZM  15 1
M  ZZI  15 113
M  ZZM  16 5
M  ZZI  16 1
M  ZZM  17 2
M  ZZI  17 120
M  ZZM  18 3
M  ZZI  18 123
M  ZZM  19 7
M  ZZI  19 82
M  ZZM  20 6
M  ZZI  20 65
M  ZZM  21 1
M  ZZI  21 112
M  ZZM  22 5
M  ZZI  22 1
M  ZZM  23 5
M  ZZI  23 1
M  ZZM  24 2
M  ZZI  24 120
M  ZZM  25 5
M  ZZI  25 1
M  ZZM  26 2
M  ZZI  26 120
M  ZZM  27 5
M  ZZI  27 1
M  ZZM  28 5
M  ZZI  28 1
M  ZZM  29 2
M  ZZI  29 120
M  ZZM  30 1
M  ZZI  30 111
M  ZZM  31 5
M  ZZI  31 1
M  ZZM  32 5
M  ZZI  32 1
M  ZZM  33 5
M  ZZI  33 1
M  ZZM  34 40
M  ZZI  34 194
M  ZZM  35 28
M  ZZI  35 11
M  ZZM  36 2
M  ZZI  36 120
M  ZZM  37 2
M  ZZI  37 120
M  ZZM  38 3
M  ZZI  38 121
M  ZZM  39 7
M  ZZI  39 81
M  ZZM  40 10
M  ZZI  40 191
M  ZZM  41 28
M  ZZI  41 11
M  ZZM  42 3
M  ZZI  42 121
M  ZZM  43 7
M  ZZI  43 81
M  ZZM  44 10
M  ZZI  44 191
M  ZZM  45 28
M  ZZI  45 11
M  END
> <NAME>
Z275650978

> <Score>
-28.970686

> <Natom>
45

> <Nflex>
4

> <Hbond>
-3.241631

> <Hphob>
-6.528803

> <VwInt>
-32.874519

> <Eintl>
9.48505

> <Dsolv>
13.533928

> <SolEl>
5.953048

> <mfScore>
-66.792531

> <RecConf>
1

> <molLogP>
3.19549

$$$$
Z167527456
  MOLSOFT 11211612053D

 45 46  0  0  0  0  0  0  0  0999 V2000
  -34.9489    1.2886   67.8814 H   0  0  0
  -34.2569    2.1053   67.6562 C   0  0  0
  -33.3372    1.9626   68.2313 H   0  0  0
  -34.0085    2.0496   66.5922 H   0  0  0
  -34.8879    3.4238   67.9861 C   0  0  0
  -35.3918    3.6524   69.2579 C   0  0  0
  -35.3285    2.8644   70.0031 H   0  0  0
  -35.9996    4.8546   69.5897 C   0  0  0
  -36.5788    5.0583   70.9585 C   0  0  0
  -37.0494    6.0421   71.0470 H   0  0  0
  -35.7931    4.9898   71.7171 H   0  0  0
  -37.3453    4.3044   71.1642 H   0  0  0
  -36.0648    5.8571   68.6376 C   0  0  0
  -36.5406    6.8036   68.8676 H   0  0  0
  -35.5203    5.6490   67.3821 C   0  0  0
  -34.9666    4.4287   67.0355 C   0  0  0
  -34.5883    4.2659   66.0312 H   0  0  0
  -35.6109    6.7263   66.3683 C   0  0  0
  -36.3919    6.5451   65.4450 O   0  0  0
  -34.8069    7.8564   66.5308 N   0  0  0
  -35.0283    8.9812   65.6172 C   0  0  0
  -34.5672    9.8863   66.0144 H   0  0  0
  -36.1079    9.1683   65.6027 H   0  0  0
  -34.5788    8.7325   64.1802 C   0  0  0
  -34.8648    9.5930   63.5698 H   0  0  0
  -35.0759    7.8534   63.7592 H   0  0  0
  -33.0924    8.5525   64.0205 C   0  0  0
  -32.2540    8.9613   64.8062 O   0  0  0
  -32.7647    7.9151   62.8599 N   0  0  0
  -31.7966    7.6935   62.6608 H   0  0  0
  -33.4470    7.6954   62.1424 H   0  0  0
  -33.6590    7.8984   67.4535 C   0  0  0
  -33.6355    6.9941   68.0628 H   0  0  0
  -32.7445    7.8461   66.8582 H   0  0  0
  -33.5952    9.0954   68.3739 C   0  0  0
  -32.9676   10.2655   67.9705 C   0  0  0
  -32.5019   10.3325   66.9930 H   0  0  0
  -32.9533   11.3762   68.7895 C   0  0  0
  -32.4862   12.2914   68.4425 H   0  0  0
  -33.5361   11.3323   70.0389 C   0  0  0
  -33.5177   12.2048   70.6846 H   0  0  0
  -34.1507   10.1743   70.4605 C   0  0  0
  -34.6168   10.1344   71.4408 H   0  0  0
  -34.1962    9.0734   69.6289 C   0  0  0
  -34.7180    8.1856   69.9723 H   0  0  0
  2  1  1
  2  3  1
  2  4  1
  2  5  1
  5  6  1
  5 16  2
  6  7  1
  6  8  2
  8  9  1
  8 13  1
  9 10  1
  9 11  1
  9 12  1
 13 14  1
 13 15  2
 15 16  1
 15 18  1
 16 17  1
 18 19  2
 18 20  1
 20 21  1
 20 32  1
 21 22  1
 21 23  1
 21 24  1
 24 25  1
 24 26  1
 24 27  1
 27 28  2
 27 29  1
 29 30  1
 29 31  1
 32 33  1
 32 34  1
 32 35  1
 35 36  2
 35 44  1
 36 37  1
 36 38  1
 38 39  1
 38 40  2
 40 41  1
 40 42  1
 42 43  1
 42 44  2
 44 45  1
M  ZZC   1 h1
M  ZZC   2 c19
M  ZZC   3 h2
M  ZZC   4 h3
M  ZZC   5 c4
M  ZZC   6 c3
M  ZZC   7 h19
M  ZZC   8 c2
M  ZZC   9 c1
M  ZZC  10 h20
M  ZZC  11 h21
M  ZZC  12 h22
M  ZZC  13 c7
M  ZZC  14 h17
M  ZZC  15 c6
M  ZZC  16 c5
M  ZZC  17 h18
M  ZZC  18 c8
M  ZZC  19 o1
M  ZZC  20 n1
M  ZZC  21 c9
M  ZZC  22 h15
M  ZZC  23 h16
M  ZZC  24 c10
M  ZZC  25 h13
M  ZZC  26 h14
M  ZZC  27 c11
M  ZZC  28 o2
M  ZZC  29 n2
M  ZZC  30 h11
M  ZZC  31 h12
M  ZZC  32 c12
M  ZZC  33 h10
M  ZZC  34 h9
M  ZZC  35 c13
M  ZZC  36 c14
M  ZZC  37 h8
M  ZZC  38 c15
M  ZZC  39 h7
M  ZZC  40 c16
M  ZZC  41 h6
M  ZZC  42 c17
M  ZZC  43 h5
M  ZZC  44 c18
M  ZZC  45 h4
M  ZZM   1 5
M  ZZI   1 1
M  ZZM   2 1
M  ZZI   2 111
M  ZZM   3 5
M  ZZI   3 1
M  ZZM   4 5
M  ZZI   4 1
M  ZZM   5 37
M  ZZI   5 124
M  ZZM   6 37
M  ZZI   6 125
M  ZZM   7 5
M  ZZI   7 1
M  ZZM   8 37
M  ZZI   8 124
M  ZZM   9 1
M  ZZI   9 111
M  ZZM  10 5
M  ZZI  10 1
M  ZZM  11 5
M  ZZI  11 1
M  ZZM  12 5
M  ZZI  12 1
M  ZZM  13 37
M  ZZI  13 125
M  ZZM  14 5
M  ZZI  14 1
M  ZZM  15 37
M  ZZI  15 124
M  ZZM  16 37
M  ZZI  16 125
M  ZZM  17 5
M  ZZI  17 1
M  ZZM  18 3
M  ZZI  18 121
M  ZZM  19 7
M  ZZI  19 81
M  ZZM  20 10
M  ZZI  20 192
M  ZZM  21 1
M  ZZI  21 112
M  ZZM  22 5
M  ZZI  22 1
M  ZZM  23 5
M  ZZI  23 1
M  ZZM  24 1
M  ZZI  24 112
M  ZZM  25 5
M  ZZI  25 1
M  ZZM  26 5
M  ZZI  26 1
M  ZZM  27 3
M  ZZI  27 121
M  ZZM  28 7
M  ZZI  28 81
M  ZZM  29 10
M  ZZI  29 212
M  ZZM  30 28
M  ZZI  30 11
M  ZZM  31 28
M  ZZI  31 11
M  ZZM  32 1
M  ZZI  32 112
M  ZZM  33 5
M  ZZI  33 1
M  ZZM  34 5
M  ZZI  34 1
M  ZZM  35 37
M  ZZI  35 124
M  ZZM  36 37
M  ZZI  36 125
M  ZZM  37 5
M  ZZI  37 1
M  ZZM  38 37
M  ZZI  38 125
M  ZZM  39 5
M  ZZI  39 1
M  ZZM  40 37
M  ZZI  40 125
M  ZZM  41 5
M  ZZI  41 1
M  ZZM  42 37
M  ZZI  42 125
M  ZZM  43 5
M  ZZI  43 1
M  ZZM  44 37
M  ZZI  44 125
M  ZZM  45 5
M  ZZI  45 1
M  END
> <NAME>
Z167527456

> <Score>
-28.842111

> <Natom>
45

> <Nflex>
6

> <Hbond>
-5.347477

> <Hphob>
-6.360647

> <VwInt>
-27.571668

> <Eintl>
6.252079

> <Dsolv>
11.973286

> <SolEl>
5.970216

> <mfScore>
-101.009247

> <RecConf>
1

> <molLogP>
2.820164

$$$$
Z192569606
  MOLSOFT 11211612053D

 45 47  0  0  0  0  0  0  0  0999 V2000
  -34.9217    8.5798   64.2337 O   0  0  0
  -33.5903    8.0264   64.3580 S   0  0  0
  -33.3410    6.7407   64.9688 O   0  0  0
  -32.9418    7.9479   62.8132 N   0  0  0
  -33.6156    8.1637   62.0738 H   0  0  0
  -32.4208    7.0848   62.6334 H   0  0  0
  -32.5019    9.2581   65.0801 C   0  0  0
  -32.6831   10.2140   64.5811 H   0  0  0
  -31.4697    8.9388   64.9027 H   0  0  0
  -32.7927    9.3413   66.5555 C   0  0  0
  -33.9214    9.9897   67.0337 C   0  0  0
  -34.5983   10.4908   66.3483 H   0  0  0
  -34.2274    9.9668   68.3796 C   0  0  0
  -35.1394   10.4486   68.7184 H   0  0  0
  -33.4119    9.2950   69.2805 C   0  0  0
  -32.2564    8.6953   68.8062 C   0  0  0
  -31.5965    8.1658   69.4859 H   0  0  0
  -31.9498    8.7223   67.4618 C   0  0  0
  -31.0509    8.2217   67.1154 H   0  0  0
  -33.8184    9.1397   70.7209 C   0  0  0
  -32.9659    8.8400   71.3392 H   0  0  0
  -34.2050   10.0861   71.1123 H   0  0  0
  -34.8676    8.1500   70.8183 N   0  0  0
  -35.7901    8.4165   70.4951 H   0  0  0
  -34.6406    6.8308   71.1414 C   0  0  0
  -33.5955    6.3895   71.5960 O   0  0  0
  -35.8253    5.9522   70.8251 C   0  0  0
  -36.7278    6.4164   71.2381 H   0  0  0
  -35.7202    4.9918   71.3348 H   0  0  0
  -36.0061    5.7890   69.3288 C   0  0  0
  -35.3813    4.6480   68.6210 C   0  0  0
  -35.5038    4.6040   67.2480 C   0  0  0
  -36.2456    5.6703   66.5540 C   0  0  0
  -36.3598    5.6749   65.3371 O   0  0  0
  -36.8152    6.6255   67.3549 N   0  0  0
  -37.3767    7.3477   66.9101 H   0  0  0
  -36.6913    6.7049   68.7151 N   0  0  0
  -34.9536    3.5590   66.5254 C   0  0  0
  -35.0532    3.5117   65.4484 H   0  0  0
  -34.2763    2.5574   67.1870 C   0  0  0
  -33.8395    1.7386   66.6275 H   0  0  0
  -34.1510    2.5935   68.5589 C   0  0  0
  -33.6159    1.7991   69.0697 H   0  0  0
  -34.6948    3.6356   69.2821 C   0  0  0
  -34.5641    3.6301   70.3579 H   0  0  0
  2  1  2
  2  3  2
  2  4  1
  2  7  1
  4  5  1
  4  6  1
  7  8  1
  7  9  1
  7 10  1
 10 11  2
 10 18  1
 11 12  1
 11 13  1
 13 14  1
 13 15  2
 15 16  1
 15 20  1
 16 17  1
 16 18  2
 18 19  1
 20 21  1
 20 22  1
 20 23  1
 23 24  1
 23 25  1
 25 26  2
 25 27  1
 27 28  1
 27 29  1
 27 30  1
 30 31  1
 30 37  2
 31 32  2
 31 44  1
 32 33  1
 32 38  1
 33 34  2
 33 35  1
 35 36  1
 35 37  1
 38 39  1
 38 40  2
 40 41  1
 40 42  1
 42 43  1
 42 44  2
 44 45  1
M  ZZC   1 o3
M  ZZC   2 s1
M  ZZC   3 o4
M  ZZC   4 n4
M  ZZC   5 h1
M  ZZC   6 h2
M  ZZC   7 c18
M  ZZC   8 h3
M  ZZC   9 h4
M  ZZC  10 c15
M  ZZC  11 c14
M  ZZC  12 h7
M  ZZC  13 c13
M  ZZC  14 h8
M  ZZC  15 c12
M  ZZC  16 c17
M  ZZC  17 h5
M  ZZC  18 c16
M  ZZC  19 h6
M  ZZC  20 c11
M  ZZC  21 h10
M  ZZC  22 h9
M  ZZC  23 n3
M  ZZC  24 h11
M  ZZC  25 c10
M  ZZC  26 o2
M  ZZC  27 c9
M  ZZC  28 h12
M  ZZC  29 h13
M  ZZC  30 c7
M  ZZC  31 c5
M  ZZC  32 c4
M  ZZC  33 c8
M  ZZC  34 o1
M  ZZC  35 n2
M  ZZC  36 h18
M  ZZC  37 n1
M  ZZC  38 c3
M  ZZC  39 h15
M  ZZC  40 c2
M  ZZC  41 h16
M  ZZC  42 c1
M  ZZC  43 h17
M  ZZC  44 c6
M  ZZC  45 h14
M  ZZM   1 32
M  ZZI   1 73
M  ZZM   2 18
M  ZZI   2 250
M  ZZM   3 32
M  ZZI   3 73
M  ZZM   4 43
M  ZZI   4 226
M  ZZM   5 28
M  ZZI   5 11
M  ZZM   6 28
M  ZZI   6 11
M  ZZM   7 1
M  ZZI   7 112
M  ZZM   8 5
M  ZZI   8 1
M  ZZM   9 5
M  ZZI   9 1
M  ZZM  10 37
M  ZZI  10 124
M  ZZM  11 37
M  ZZI  11 125
M  ZZM  12 5
M  ZZI  12 1
M  ZZM  13 37
M  ZZI  13 125
M  ZZM  14 5
M  ZZI  14 1
M  ZZM  15 37
M  ZZI  15 124
M  ZZM  16 37
M  ZZI  16 125
M  ZZM  17 5
M  ZZI  17 1
M  ZZM  18 37
M  ZZI  18 125
M  ZZM  19 5
M  ZZI  19 1
M  ZZM  20 1
M  ZZI  20 112
M  ZZM  21 5
M  ZZI  21 1
M  ZZM  22 5
M  ZZI  22 1
M  ZZM  23 10
M  ZZI  23 211
M  ZZM  24 28
M  ZZI  24 11
M  ZZM  25 3
M  ZZI  25 121
M  ZZM  26 7
M  ZZI  26 81
M  ZZM  27 1
M  ZZI  27 112
M  ZZM  28 5
M  ZZI  28 1
M  ZZM  29 5
M  ZZI  29 1
M  ZZM  30 3
M  ZZI  30 121
M  ZZM  31 37
M  ZZI  31 124
M  ZZM  32 37
M  ZZI  32 124
M  ZZM  33 3
M  ZZI  33 121
M  ZZM  34 7
M  ZZI  34 81
M  ZZM  35 10
M  ZZI  35 191
M  ZZM  36 28
M  ZZI  36 11
M  ZZM  37 9
M  ZZI  37 220
M  ZZM  38 37
M  ZZI  38 125
M  ZZM  39 5
M  ZZI  39 1
M  ZZM  40 37
M  ZZI  40 125
M  ZZM  41 5
M  ZZI  41 1
M  ZZM  42 37
M  ZZI  42 125
M  ZZM  43 5
M  ZZI  43 1
M  ZZM  44 37
M  ZZI  44 125
M  ZZM  45 5
M  ZZI  45 1
M  END
> <NAME>
Z192569606

> <Score>
-28.59038

> <Natom>
45

> <Nflex>
7

> <Hbond>
-7.995057

> <Hphob>
-5.017716

> <VwInt>
-26.381609

> <Eintl>
4.973245

> <Dsolv>
16.576574

> <SolEl>
7.194185

> <mfScore>
-101.253981

> <RecConf>
1

> <molLogP>
1.083363

$$$$
Z90423798
  MOLSOFT 11211612053D

 45 47  0  0  1  0  0  0  0  0999 V2000
  -30.9834    7.9230   70.7666 O   0  0  0
  -30.6012    9.0437   71.2016 C   0  0  0
  -29.7611    9.2873   72.1123 O   0  5  0
  -31.2306   10.2794   70.5364 C   0  0  1
  -30.4234   10.8214   70.0304 H   0  0  0
  -32.3486    9.9329   69.5330 C   0  0  1
  -33.0794    9.2721   70.0175 H   0  0  0
  -33.0639   11.1942   69.0306 C   0  0  0
  -34.0431   10.9228   68.6207 H   0  0  0
  -32.5097   11.6537   68.2044 H   0  0  0
  -33.2694   12.2241   70.0806 C   0  0  0
  -33.9233   13.0499   69.8317 H   0  0  0
  -32.7056   12.1751   71.2903 C   0  0  0
  -32.9338   12.9523   72.0115 H   0  0  0
  -31.7494   11.1139   71.7112 C   0  0  0
  -32.2429   10.4825   72.4586 H   0  0  0
  -30.9061   11.5978   72.2162 H   0  0  0
  -31.8275    9.2331   68.2856 C   0  0  0
  -30.6426    9.2371   67.9823 O   0  0  0
  -32.8690    8.7008   67.5391 N   0  0  0
  -33.7551    8.5991   68.0133 H   0  0  0
  -32.8303    8.3437   66.1663 C   0  0  0
  -31.6810    8.5291   65.4084 C   0  0  0
  -30.7634    8.8885   65.8570 H   0  0  0
  -31.6757    8.2749   64.0539 C   0  0  0
  -30.7719    8.4278   63.4718 H   0  0  0
  -32.8195    7.8278   63.4382 C   0  0  0
  -32.8195    7.6345   62.3702 H   0  0  0
  -33.9604    7.6174   64.1778 C   0  0  0
  -34.8442    7.2559   63.6625 H   0  0  0
  -33.9919    7.8608   65.5469 C   0  0  0
  -35.2754    7.5753   66.2977 C   0  0  0
  -35.5016    8.3952   66.9872 H   0  0  0
  -36.1182    7.5849   65.5987 H   0  0  0
  -35.2790    6.2479   67.0193 C   0  0  0
  -35.2016    5.0508   66.3197 C   0  0  0
  -35.1305    5.0474   65.2366 H   0  0  0
  -35.2202    3.8426   66.9890 C   0  0  0
  -35.1637    2.9141   66.4298 H   0  0  0
  -35.3137    3.8082   68.3649 C   0  0  0
  -35.3329    2.8581   68.8892 H   0  0  0
  -35.3761    4.9878   69.0739 C   0  0  0
  -35.4419    4.9659   70.1575 H   0  0  0
  -35.3520    6.1950   68.4058 C   0  0  0
  -35.3964    7.1103   68.9843 H   0  0  0
  2  1  2
  2  3  1
  4  2  1
  4  5  1
  4  6  1
  4 15  1
  6  7  1
  6  8  1
  6 18  1
  8  9  1
  8 10  1
  8 11  1
 11 12  1
 11 13  2
 13 14  1
 13 15  1
 15 16  1
 15 17  1
 18 19  2
 18 20  1
 20 21  1
 20 22  1
 22 23  2
 22 31  1
 23 24  1
 23 25  1
 25 26  1
 25 27  2
 27 28  1
 27 29  1
 29 30  1
 29 31  2
 31 32  1
 32 33  1
 32 34  1
 32 35  1
 35 36  2
 35 44  1
 36 37  1
 36 38  1
 38 39  1
 38 40  2
 40 41  1
 40 42  1
 42 43  1
 42 44  2
 44 45  1
M  ZZC   1 o2
M  ZZC   2 c21
M  ZZC   3 o3
M  ZZC   4 c20
M  ZZC   5 h19
M  ZZC   6 c15
M  ZZC   7 h20
M  ZZC   8 c16
M  ZZC   9 h5
M  ZZC  10 h6
M  ZZC  11 c17
M  ZZC  12 h4
M  ZZC  13 c18
M  ZZC  14 h3
M  ZZC  15 c19
M  ZZC  16 h1
M  ZZC  17 h2
M  ZZC  18 c14
M  ZZC  19 o1
M  ZZC  20 n1
M  ZZC  21 h7
M  ZZC  22 c13
M  ZZC  23 c12
M  ZZC  24 h8
M  ZZC  25 c11
M  ZZC  26 h9
M  ZZC  27 c10
M  ZZC  28 h10
M  ZZC  29 c9
M  ZZC  30 h11
M  ZZC  31 c8
M  ZZC  32 c7
M  ZZC  33 h12
M  ZZC  34 h13
M  ZZC  35 c4
M  ZZC  36 c3
M  ZZC  37 h16
M  ZZC  38 c2
M  ZZC  39 h17
M  ZZC  40 c1
M  ZZC  41 h18
M  ZZC  42 c6
M  ZZC  43 h14
M  ZZC  44 c5
M  ZZC  45 h15
M  ZZM   1 32
M  ZZI   1 71
M  ZZM   2 41
M  ZZI   2 127
M  ZZM   3 32
M  ZZI   3 71
M  ZZM   4 1
M  ZZI   4 113
M  ZZM   5 5
M  ZZI   5 1
M  ZZM   6 1
M  ZZI   6 113
M  ZZM   7 5
M  ZZI   7 1
M  ZZM   8 1
M  ZZI   8 112
M  ZZM   9 5
M  ZZI   9 1
M  ZZM  10 5
M  ZZI  10 1
M  ZZM  11 2
M  ZZI  11 120
M  ZZM  12 5
M  ZZI  12 1
M  ZZM  13 2
M  ZZI  13 120
M  ZZM  14 5
M  ZZI  14 1
M  ZZM  15 1
M  ZZI  15 112
M  ZZM  16 5
M  ZZI  16 1
M  ZZM  17 5
M  ZZI  17 1
M  ZZM  18 3
M  ZZI  18 121
M  ZZM  19 7
M  ZZI  19 81
M  ZZM  20 10
M  ZZI  20 191
M  ZZM  21 28
M  ZZI  21 11
M  ZZM  22 37
M  ZZI  22 124
M  ZZM  23 37
M  ZZI  23 125
M  ZZM  24 5
M  ZZI  24 1
M  ZZM  25 37
M  ZZI  25 125
M  ZZM  26 5
M  ZZI  26 1
M  ZZM  27 37
M  ZZI  27 125
M  ZZM  28 5
M  ZZI  28 1
M  ZZM  29 37
M  ZZI  29 125
M  ZZM  30 5
M  ZZI  30 1
M  ZZM  31 37
M  ZZI  31 124
M  ZZM  32 1
M  ZZI  32 112
M  ZZM  33 5
M  ZZI  33 1
M  ZZM  34 5
M  ZZI  34 1
M  ZZM  35 37
M  ZZI  35 124
M  ZZM  36 37
M  ZZI  36 125
M  ZZM  37 5
M  ZZI  37 1
M  ZZM  38 37
M  ZZI  38 125
M  ZZM  39 5
M  ZZI  39 1
M  ZZM  40 37
M  ZZI  40 125
M  ZZM  41 5
M  ZZI  41 1
M  ZZM  42 37
M  ZZI  42 125
M  ZZM  43 5
M  ZZI  43 1
M  ZZM  44 37
M  ZZI  44 125
M  ZZM  45 5
M  ZZI  45 1
M  CHG  1   3  -1
M  END
> <NAME>
Z90423798

> <Score>
-28.190441

> <Natom>
45

> <Nflex>
4

> <Hbond>
-2.700693

> <Hphob>
-7.036306

> <VwInt>
-29.572823

> <Eintl>
6.983995

> <Dsolv>
10.390395

> <SolEl>
4.14646

> <mfScore>
-113.217835

> <RecConf>
1

> <molLogP>
3.940356

$$$$
Z237944434
  MOLSOFT 11211612053D

 45 48  0  0  0  0  0  0  0  0999 V2000
  -31.5419    8.1021   65.5526 H   0  0  0
  -32.2524    8.7416   65.0193 C   0  0  0
  -32.0812    9.8080   65.1845 H   0  0  0
  -32.3050    8.4129   63.5423 C   0  0  0
  -31.3870    8.5925   62.7588 O   0  0  0
  -33.5308    7.8889   63.2314 N   0  0  0
  -33.8074    7.6100   62.2994 H   0  0  0
  -34.3249    7.8356   64.3239 C   0  0  0
  -35.4565    7.3780   64.3599 O   0  0  0
  -33.6097    8.3768   65.3498 N   0  0  0
  -34.0911    8.5635   66.6507 N   0  0  0
  -34.3528    7.7259   67.1672 H   0  0  0
  -34.2505    9.8427   67.1596 C   0  0  0
  -33.9399   10.8773   66.5813 O   0  0  0
  -34.8562    9.8448   68.5451 C   0  0  0
  -35.2134   10.8483   68.7942 H   0  0  0
  -35.7107    9.1632   68.5831 H   0  0  0
  -33.8708    9.4384   69.5485 N   0  0  0
  -32.9007   10.2564   70.0754 C   0  0  0
  -32.6445   11.6101   69.9562 C   0  0  0
  -33.2597   12.2757   69.3579 H   0  0  0
  -31.5535   12.0824   70.6588 C   0  0  0
  -31.3162   13.1377   70.6181 H   0  0  0
  -30.7380   11.2509   71.3964 C   0  0  0
  -29.8800   11.6688   71.9136 H   0  0  0
  -30.9981    9.9002   71.4902 C   0  0  0
  -30.3645    9.2466   72.0797 H   0  0  0
  -32.1143    9.4109   70.8313 C   0  0  0
  -32.6091    8.1353   70.8122 N   0  0  0
  -33.7296    8.1899   70.1205 C   0  0  0
  -34.7093    7.0728   70.0257 C   0  0  0
  -34.3734    6.2978   70.7165 H   0  0  0
  -35.7099    7.3978   70.3265 H   0  0  0
  -34.7439    6.6067   68.6664 O   0  0  0
  -34.9814    5.2313   68.5391 C   0  0  0
  -35.2360    4.3657   69.5995 C   0  0  0
  -35.3489    4.7046   70.6216 H   0  0  0
  -35.3427    3.0095   69.3655 C   0  0  0
  -35.5209    2.3286   70.1925 H   0  0  0
  -35.2260    2.5131   68.0856 C   0  0  0
  -35.3072    1.4447   67.9138 H   0  0  0
  -35.0284    3.3729   67.0260 C   0  0  0
  -34.9533    2.9801   66.0169 H   0  0  0
  -34.9114    4.7285   67.2530 C   0  0  0
  -34.7386    5.3938   66.4138 H   0  0  0
  2  1  1
  2  3  1
  2  4  1
  2 10  1
  4  5  2
  4  6  1
  6  7  1
  6  8  1
  8  9  2
  8 10  1
 10 11  1
 11 12  1
 11 13  1
 13 14  2
 13 15  1
 15 16  1
 15 17  1
 15 18  1
 18 19  1
 18 30  1
 19 20  1
 19 28  2
 20 21  1
 20 22  2
 22 23  1
 22 24  1
 24 25  1
 24 26  2
 26 27  1
 26 28  1
 28 29  1
 29 30  2
 30 31  1
 31 32  1
 31 33  1
 31 34  1
 34 35  1
 35 36  1
 35 44  2
 36 37  1
 36 38  2
 38 39  1
 38 40  1
 40 41  1
 40 42  2
 42 43  1
 42 44  1
 44 45  1
M  ZZC   1 h2
M  ZZC   2 c17
M  ZZC   3 h3
M  ZZC   4 c18
M  ZZC   5 o3
M  ZZC   6 n5
M  ZZC   7 h1
M  ZZC   8 c19
M  ZZC   9 o4
M  ZZC  10 n4
M  ZZC  11 n3
M  ZZC  12 h4
M  ZZC  13 c16
M  ZZC  14 o2
M  ZZC  15 c15
M  ZZC  16 h5
M  ZZC  17 h6
M  ZZC  18 n2
M  ZZC  19 c14
M  ZZC  20 c13
M  ZZC  21 h7
M  ZZC  22 c12
M  ZZC  23 h8
M  ZZC  24 c11
M  ZZC  25 h9
M  ZZC  26 c10
M  ZZC  27 h10
M  ZZC  28 c9
M  ZZC  29 n1
M  ZZC  30 c8
M  ZZC  31 c7
M  ZZC  32 h11
M  ZZC  33 h12
M  ZZC  34 o1
M  ZZC  35 c4
M  ZZC  36 c3
M  ZZC  37 h15
M  ZZC  38 c2
M  ZZC  39 h16
M  ZZC  40 c1
M  ZZC  41 h17
M  ZZC  42 c6
M  ZZC  43 h13
M  ZZC  44 c5
M  ZZC  45 h14
M  ZZM   1 5
M  ZZI   1 1
M  ZZM   2 1
M  ZZI   2 112
M  ZZM   3 5
M  ZZI   3 1
M  ZZM   4 3
M  ZZI   4 121
M  ZZM   5 7
M  ZZI   5 81
M  ZZM   6 10
M  ZZI   6 191
M  ZZM   7 28
M  ZZI   7 11
M  ZZM   8 3
M  ZZI   8 121
M  ZZM   9 7
M  ZZI   9 81
M  ZZM  10 10
M  ZZI  10 192
M  ZZM  11 10
M  ZZI  11 191
M  ZZM  12 28
M  ZZI  12 11
M  ZZM  13 3
M  ZZI  13 121
M  ZZM  14 7
M  ZZI  14 81
M  ZZM  15 1
M  ZZI  15 112
M  ZZM  16 5
M  ZZI  16 1
M  ZZM  17 5
M  ZZI  17 1
M  ZZM  18 39
M  ZZI  18 215
M  ZZM  19 63
M  ZZI  19 104
M  ZZM  20 37
M  ZZI  20 125
M  ZZM  21 5
M  ZZI  21 1
M  ZZM  22 37
M  ZZI  22 125
M  ZZM  23 5
M  ZZI  23 1
M  ZZM  24 37
M  ZZI  24 125
M  ZZM  25 5
M  ZZI  25 1
M  ZZM  26 37
M  ZZI  26 125
M  ZZM  27 5
M  ZZI  27 1
M  ZZM  28 64
M  ZZI  28 105
M  ZZM  29 66
M  ZZI  29 222
M  ZZM  30 63
M  ZZI  30 104
M  ZZM  31 1
M  ZZI  31 112
M  ZZM  32 5
M  ZZI  32 1
M  ZZM  33 5
M  ZZI  33 1
M  ZZM  34 6
M  ZZI  34 59
M  ZZM  35 37
M  ZZI  35 124
M  ZZM  36 37
M  ZZI  36 125
M  ZZM  37 5
M  ZZI  37 1
M  ZZM  38 37
M  ZZI  38 125
M  ZZM  39 5
M  ZZI  39 1
M  ZZM  40 37
M  ZZI  40 125
M  ZZM  41 5
M  ZZI  41 1
M  ZZM  42 37
M  ZZI  42 125
M  ZZM  43 5
M  ZZI  43 1
M  ZZM  44 37
M  ZZI  44 125
M  ZZM  45 5
M  ZZI  45 1
M  END
> <NAME>
Z237944434

> <Score>
-27.248583

> <Natom>
45

> <Nflex>
5

> <Hbond>
-5.784703

> <Hphob>
-6.353103

> <VwInt>
-29.373087

> <Eintl>
7.214125

> <Dsolv>
14.450678

> <SolEl>
10.876324

> <mfScore>
-91.14556

> <RecConf>
1

> <molLogP>
0.72224

$$$$
Z1139447163
  MOLSOFT 11211612053D

 45 48  0  0  1  0  0  0  0  0999 V2000
  -35.1428    4.9554   65.4556 H   0  0  0
  -35.0619    4.6292   66.4859 C   0  0  0
  -35.2750    5.5118   67.5342 C   0  0  0
  -35.2024    4.9825   68.8145 C   0  0  0
  -35.4300    5.5726   69.6930 H   0  0  0
  -34.8714    3.6533   68.9791 C   0  0  0
  -34.8090    3.2241   69.9740 H   0  0  0
  -34.6176    2.8018   67.9816 N   0  0  0
  -34.7346    3.3171   66.7542 C   0  0  0
  -34.5528    2.6191   65.9436 H   0  0  0
  -35.6498    6.8954   67.2567 C   0  0  0
  -35.3636    8.1229   67.9669 C   0  0  0
  -36.0888    9.0710   67.2774 C   0  0  0
  -36.2627   10.1187   67.4551 H   0  0  0
  -36.7183    8.4327   66.2539 N   0  0  0
  -37.3985    8.8068   65.6018 H   0  0  0
  -36.4000    7.1341   66.1670 N   0  0  0
  -34.5937    8.3579   69.1868 C   0  0  0
  -34.6145    7.5381   70.0918 O   0  0  0
  -33.8395    9.5288   69.3298 N   0  0  0
  -33.5222   10.5987   68.3829 C   0  0  1
  -34.4029   10.8847   67.8087 H   0  0  0
  -33.1154   11.7558   69.2869 C   0  0  0
  -34.0022   12.2828   69.6501 H   0  0  0
  -32.4788   12.4995   68.7978 H   0  0  0
  -32.4312   11.0672   70.4456 C   0  0  0
  -32.3949   11.6857   71.3477 H   0  0  0
  -31.4024   10.8040   70.1752 H   0  0  0
  -33.2611    9.8139   70.6301 C   0  0  0
  -34.0816    9.9793   71.3373 H   0  0  0
  -32.6647    8.9663   70.9850 H   0  0  0
  -32.3536   10.2135   67.4579 C   0  0  0
  -31.7093   11.0712   67.2417 H   0  0  0
  -31.7318    9.4165   67.8807 H   0  0  0
  -32.8262    9.7629   66.1595 N   0  0  0
  -32.6831    8.5155   65.6113 C   0  0  0
  -32.1308    7.7290   66.1059 H   0  0  0
  -33.4146    8.5335   64.4468 C   0  0  0
  -33.6341    7.4313   63.4919 C   0  0  0
  -32.7319    7.2522   62.9035 H   0  0  0
  -34.4458    7.6691   62.7992 H   0  0  0
  -33.9051    6.5119   64.0149 H   0  0  0
  -33.9096    9.8552   64.3689 C   0  0  0
  -34.5568   10.2816   63.6193 H   0  0  0
  -33.4839   10.6334   65.3678 N   0  0  0
  2  1  1
  2  3  2
  2  9  1
  3  4  1
  3 11  1
  4  5  1
  4  6  2
  6  7  1
  6  8  1
  8  9  2
  9 10  1
 11 12  1
 11 17  2
 12 13  2
 12 18  1
 13 14  1
 13 15  1
 15 16  1
 15 17  1
 18 19  2
 18 20  1
 21 20  1
 20 29  1
 21 22  1
 21 23  1
 21 32  1
 23 24  1
 23 25  1
 23 26  1
 26 27  1
 26 28  1
 26 29  1
 29 30  1
 29 31  1
 32 33  1
 32 34  1
 32 35  1
 35 36  1
 35 45  1
 36 37  1
 36 38  2
 38 39  1
 38 43  1
 39 40  1
 39 41  1
 39 42  1
 43 44  1
 43 45  2
M  ZZC   1 h1
M  ZZC   2 c18
M  ZZC   3 c14
M  ZZC   4 c15
M  ZZC   5 h4
M  ZZC   6 c16
M  ZZC   7 h3
M  ZZC   8 n6
M  ZZC   9 c17
M  ZZC  10 h2
M  ZZC  11 c13
M  ZZC  12 c11
M  ZZC  13 c12
M  ZZC  14 h5
M  ZZC  15 n4
M  ZZC  16 h19
M  ZZC  17 n5
M  ZZC  18 c10
M  ZZC  19 o1
M  ZZC  20 n3
M  ZZC  21 c6
M  ZZC  22 h20
M  ZZC  23 c7
M  ZZC  24 h10
M  ZZC  25 h11
M  ZZC  26 c8
M  ZZC  27 h8
M  ZZC  28 h9
M  ZZC  29 c9
M  ZZC  30 h6
M  ZZC  31 h7
M  ZZC  32 c5
M  ZZC  33 h12
M  ZZC  34 h13
M  ZZC  35 n2
M  ZZC  36 c4
M  ZZC  37 h14
M  ZZC  38 c2
M  ZZC  39 c1
M  ZZC  40 h16
M  ZZC  41 h17
M  ZZC  42 h18
M  ZZC  43 c3
M  ZZC  44 h15
M  ZZC  45 n1
M  ZZM   1 5
M  ZZI   1 1
M  ZZM   2 37
M  ZZI   2 125
M  ZZM   3 37
M  ZZI   3 124
M  ZZM   4 37
M  ZZI   4 125
M  ZZM   5 5
M  ZZI   5 1
M  ZZM   6 37
M  ZZI   6 125
M  ZZM   7 5
M  ZZI   7 1
M  ZZM   8 38
M  ZZI   8 223
M  ZZM   9 37
M  ZZI   9 125
M  ZZM  10 5
M  ZZI  10 1
M  ZZM  11 64
M  ZZI  11 105
M  ZZM  12 64
M  ZZI  12 105
M  ZZM  13 63
M  ZZI  13 104
M  ZZM  14 5
M  ZZI  14 1
M  ZZM  15 39
M  ZZI  15 215
M  ZZM  16 23
M  ZZI  16 10
M  ZZM  17 65
M  ZZI  17 207
M  ZZM  18 3
M  ZZI  18 121
M  ZZM  19 7
M  ZZI  19 81
M  ZZM  20 10
M  ZZI  20 192
M  ZZM  21 1
M  ZZI  21 113
M  ZZM  22 5
M  ZZI  22 1
M  ZZM  23 1
M  ZZI  23 112
M  ZZM  24 5
M  ZZI  24 1
M  ZZM  25 5
M  ZZI  25 1
M  ZZM  26 1
M  ZZI  26 112
M  ZZM  27 5
M  ZZI  27 1
M  ZZM  28 5
M  ZZI  28 1
M  ZZM  29 1
M  ZZI  29 112
M  ZZM  30 5
M  ZZI  30 1
M  ZZM  31 5
M  ZZI  31 1
M  ZZM  32 1
M  ZZI  32 112
M  ZZM  33 5
M  ZZI  33 1
M  ZZM  34 5
M  ZZI  34 1
M  ZZM  35 39
M  ZZI  35 215
M  ZZM  36 63
M  ZZI  36 104
M  ZZM  37 5
M  ZZI  37 1
M  ZZM  38 64
M  ZZI  38 105
M  ZZM  39 1
M  ZZI  39 111
M  ZZM  40 5
M  ZZI  40 1
M  ZZM  41 5
M  ZZI  41 1
M  ZZM  42 5
M  ZZI  42 1
M  ZZM  43 64
M  ZZI  43 105
M  ZZM  44 5
M  ZZI  44 1
M  ZZM  45 65
M  ZZI  45 207
M  END
> <NAME>
Z1139447163

> <Score>
-26.796798

> <Natom>
45

> <Nflex>
3

> <Hbond>
-3.789046

> <Hphob>
-6.588388

> <VwInt>
-29.932091

> <Eintl>
8.341663

> <Dsolv>
13.051297

> <SolEl>
8.40504

> <mfScore>
-101.550908

> <RecConf>
1

> <molLogP>
1.118055

$$$$
Z45959721
  MOLSOFT 11211612053D

 45 47  0  0  0  0  0  0  0  0999 V2000
  -35.8009    6.0344   65.0931 O   0  0  0
  -35.7471    6.0019   66.3142 C   0  0  0
  -36.0195    7.1521   67.2093 C   0  0  0
  -36.1098    8.5683   66.6877 C   0  0  0
  -37.1359    8.9289   66.7844 H   0  0  0
  -35.8765    8.5632   65.6187 H   0  0  0
  -35.1645    9.4929   67.4164 C   0  0  0
  -35.1291    9.5456   68.8062 C   0  0  0
  -35.7767    8.9079   69.3940 H   0  0  0
  -34.2815   10.3892   69.4931 C   0  0  0
  -34.3050   10.3734   70.5764 H   0  0  0
  -33.4425   11.2277   68.7822 C   0  0  0
  -33.4642   11.1668   67.4033 C   0  0  0
  -34.3103   10.3261   66.7125 C   0  0  0
  -34.2904   10.3184   65.6270 H   0  0  0
  -32.5975   11.9574   66.6841 O   0  0  0
  -32.0410   12.3972   67.3592 H   0  0  0
  -32.5618   12.1520   69.3526 O   0  0  0
  -32.5178   12.0993   70.7821 C   0  0  0
  -33.4727   12.4154   71.2149 H   0  0  0
  -31.7501   12.8006   71.1188 H   0  0  0
  -32.2283   11.1034   71.1328 H   0  0  0
  -36.1163    6.7552   68.4394 N   0  0  0
  -35.7812    5.4303   68.4165 C   0  0  0
  -35.5025    4.9021   67.2335 C   0  0  0
  -35.0495    3.5278   67.0746 C   0  0  0
  -34.8312    3.0677   65.9649 O   0  0  0
  -34.8880    2.8696   68.2802 N   0  0  0
  -34.3609    1.5169   68.2374 C   0  0  0
  -35.1973    0.8219   68.1153 H   0  0  0
  -33.8340    1.2740   69.1644 H   0  0  0
  -33.6703    1.4063   67.3970 H   0  0  0
  -35.2329    3.3799   69.5244 C   0  0  0
  -35.1486    2.7043   70.5387 O   0  0  0
  -35.6799    4.6899   69.5585 N   0  0  0
  -36.0703    5.2899   70.8347 C   0  0  0
  -35.5336    4.7841   71.6439 H   0  0  0
  -35.7440    6.3353   70.8544 H   0  0  0
  -37.5753    5.1793   71.0785 C   0  0  0
  -38.1277    5.6040   70.2349 H   0  0  0
  -37.8638    4.1252   71.1405 H   0  0  0
  -37.9958    5.8920   72.3510 C   0  0  0
  -37.5062    5.4549   73.2260 H   0  0  0
  -39.0774    5.8121   72.4927 H   0  0  0
  -37.7410    6.9551   72.3106 H   0  0  0
  2  1  2
  2  3  1
  2 25  1
  3  4  1
  3 23  2
  4  5  1
  4  6  1
  4  7  1
  7  8  2
  7 14  1
  8  9  1
  8 10  1
 10 11  1
 10 12  2
 12 13  1
 12 18  1
 13 14  2
 13 16  1
 14 15  1
 16 17  1
 18 19  1
 19 20  1
 19 21  1
 19 22  1
 23 24  1
 24 25  2
 24 35  1
 25 26  1
 26 27  2
 26 28  1
 28 29  1
 28 33  1
 29 30  1
 29 31  1
 29 32  1
 33 34  2
 33 35  1
 35 36  1
 36 37  1
 36 38  1
 36 39  1
 39 40  1
 39 41  1
 39 42  1
 42 43  1
 42 44  1
 42 45  1
M  ZZC   1 o3
M  ZZC   2 c9
M  ZZC   3 c10
M  ZZC   4 c11
M  ZZC   5 h1
M  ZZC   6 h9
M  ZZC   7 c12
M  ZZC   8 c13
M  ZZC   9 h8
M  ZZC  10 c14
M  ZZC  11 h7
M  ZZC  12 c15
M  ZZC  13 c16
M  ZZC  14 c17
M  ZZC  15 h6
M  ZZC  16 o4
M  ZZC  17 h5
M  ZZC  18 o5
M  ZZC  19 c18
M  ZZC  20 h2
M  ZZC  21 h3
M  ZZC  22 h4
M  ZZC  23 n3
M  ZZC  24 c4
M  ZZC  25 c5
M  ZZC  26 c6
M  ZZC  27 o1
M  ZZC  28 n2
M  ZZC  29 c8
M  ZZC  30 h10
M  ZZC  31 h11
M  ZZC  32 h12
M  ZZC  33 c7
M  ZZC  34 o2
M  ZZC  35 n1
M  ZZC  36 c3
M  ZZC  37 h13
M  ZZC  38 h14
M  ZZC  39 c2
M  ZZC  40 h15
M  ZZC  41 h16
M  ZZC  42 c1
M  ZZC  43 h17
M  ZZC  44 h18
M  ZZC  45 h19
M  ZZM   1 7
M  ZZI   1 80
M  ZZM   2 3
M  ZZI   2 122
M  ZZM   3 3
M  ZZI   3 121
M  ZZM   4 1
M  ZZI   4 112
M  ZZM   5 5
M  ZZI   5 1
M  ZZM   6 5
M  ZZI   6 1
M  ZZM   7 37
M  ZZI   7 124
M  ZZM   8 37
M  ZZI   8 125
M  ZZM   9 5
M  ZZI   9 1
M  ZZM  10 37
M  ZZI  10 125
M  ZZM  11 5
M  ZZI  11 1
M  ZZM  12 37
M  ZZI  12 124
M  ZZM  13 37
M  ZZI  13 124
M  ZZM  14 37
M  ZZI  14 125
M  ZZM  15 5
M  ZZI  15 1
M  ZZM  16 6
M  ZZI  16 62
M  ZZM  17 29
M  ZZI  17 27
M  ZZM  18 6
M  ZZI  18 59
M  ZZM  19 1
M  ZZI  19 111
M  ZZM  20 5
M  ZZI  20 1
M  ZZM  21 5
M  ZZI  21 1
M  ZZM  22 5
M  ZZI  22 1
M  ZZM  23 9
M  ZZI  23 220
M  ZZM  24 2
M  ZZI  24 120
M  ZZM  25 2
M  ZZI  25 120
M  ZZM  26 3
M  ZZI  26 121
M  ZZM  27 7
M  ZZI  27 81
M  ZZM  28 10
M  ZZI  28 192
M  ZZM  29 1
M  ZZI  29 111
M  ZZM  30 5
M  ZZI  30 1
M  ZZM  31 5
M  ZZI  31 1
M  ZZM  32 5
M  ZZI  32 1
M  ZZM  33 3
M  ZZI  33 121
M  ZZM  34 7
M  ZZI  34 81
M  ZZM  35 10
M  ZZI  35 192
M  ZZM  36 1
M  ZZI  36 112
M  ZZM  37 5
M  ZZI  37 1
M  ZZM  38 5
M  ZZI  38 1
M  ZZM  39 1
M  ZZI  39 112
M  ZZM  40 5
M  ZZI  40 1
M  ZZM  41 5
M  ZZI  41 1
M  ZZM  42 1
M  ZZI  42 111
M  ZZM  43 5
M  ZZI  43 1
M  ZZM  44 5
M  ZZI  44 1
M  ZZM  45 5
M  ZZI  45 1
M  END
> <NAME>
Z45959721

> <Score>
-26.738099

> <Natom>
45

> <Nflex>
4

> <Hbond>
-3.294838

> <Hphob>
-5.867503

> <VwInt>
-31.025229

> <Eintl>
7.459487

> <Dsolv>
11.855185

> <SolEl>
7.974102

> <mfScore>
-33.883515

> <RecConf>
1

> <molLogP>
1.264499

$$$$
Z228184226
  MOLSOFT 11211612053D

 45 48  0  0  1  0  0  0  0  0999 V2000
  -32.0194    8.9717   62.9900 H   0  0  0
  -32.2937    8.5319   63.9536 C   0  0  0
  -31.4304    8.1365   64.4969 H   0  0  0
  -33.1066    9.4823   64.8038 C   0  0  0
  -32.7227   10.5817   65.1757 O   0  0  0
  -34.3178    8.9003   65.0690 N   0  0  0
  -34.4420    7.7309   64.3884 C   0  0  0
  -35.4398    7.0338   64.3209 O   0  0  0
  -33.2674    7.4869   63.7532 N   0  0  0
  -33.1143    6.6765   63.1647 H   0  0  0
  -35.3587    9.5306   65.8566 C   0  0  0
  -35.4963   10.5282   65.4405 H   0  0  0
  -36.3112    9.0126   65.7202 H   0  0  0
  -34.9800    9.6510   67.3169 C   0  0  0
  -35.0964    8.5988   68.2321 C   0  0  0
  -34.6688    8.7488   69.5468 C   0  0  0
  -34.7851    7.9484   70.2714 H   0  0  0
  -34.1067    9.9367   69.9623 C   0  0  0
  -33.7700   10.0523   70.9881 H   0  0  0
  -33.9793   10.9797   69.0725 C   0  0  0
  -33.5330   11.9169   69.3928 H   0  0  0
  -34.4172   10.8401   67.7731 C   0  0  0
  -34.2908   11.6836   67.1008 H   0  0  0
  -35.6965    7.2991   67.8345 C   0  0  0
  -36.6918    7.2657   67.1285 O   0  0  0
  -35.0499    6.1828   68.3109 N   0  0  0
  -34.1862    6.2688   68.8318 H   0  0  0
  -35.5499    4.8630   67.9896 C   0  0  2
  -36.6312    4.8528   68.1478 H   0  0  0
  -34.9135    3.7894   68.8022 C   0  0  0
  -34.8369    3.7207   70.1810 C   0  0  0
  -35.2430    4.5115   70.8041 H   0  0  0
  -34.2443    2.6113   70.7531 C   0  0  0
  -34.1743    2.5340   71.8333 H   0  0  0
  -33.7477    1.5927   69.9579 C   0  0  0
  -33.2916    0.7254   70.4225 H   0  0  0
  -33.8351    1.6691   68.5806 C   0  0  0
  -33.4560    0.8674   67.9560 H   0  0  0
  -34.4287    2.7820   68.0213 C   0  0  0
  -34.6612    3.0344   66.5736 C   0  0  0
  -35.3921    2.3346   66.1688 H   0  0  0
  -33.7358    2.9473   65.9971 H   0  0  0
  -35.2037    4.4590   66.5517 C   0  0  0
  -36.0766    4.5354   65.8949 H   0  0  0
  -34.4595    5.1338   66.1213 H   0  0  0
  2  1  1
  2  3  1
  2  4  1
  2  9  1
  4  5  2
  4  6  1
  6  7  1
  6 11  1
  7  8  2
  7  9  1
  9 10  1
 11 12  1
 11 13  1
 11 14  1
 14 15  1
 14 22  2
 15 16  2
 15 24  1
 16 17  1
 16 18  1
 18 19  1
 18 20  2
 20 21  1
 20 22  1
 22 23  1
 24 25  2
 24 26  1
 26 27  1
 28 26  1
 28 29  1
 28 30  1
 28 43  1
 30 31  1
 30 39  2
 31 32  1
 31 33  2
 33 34  1
 33 35  1
 35 36  1
 35 37  2
 37 38  1
 37 39  1
 39 40  1
 40 41  1
 40 42  1
 40 43  1
 43 44  1
 43 45  1
M  ZZC   1 h2
M  ZZC   2 c19
M  ZZC   3 h3
M  ZZC   4 c18
M  ZZC   5 o2
M  ZZC   6 n2
M  ZZC   7 c20
M  ZZC   8 o3
M  ZZC   9 n3
M  ZZC  10 h1
M  ZZC  11 c17
M  ZZC  12 h4
M  ZZC  13 h5
M  ZZC  14 c16
M  ZZC  15 c11
M  ZZC  16 c12
M  ZZC  17 h9
M  ZZC  18 c13
M  ZZC  19 h8
M  ZZC  20 c14
M  ZZC  21 h7
M  ZZC  22 c15
M  ZZC  23 h6
M  ZZC  24 c10
M  ZZC  25 o1
M  ZZC  26 n1
M  ZZC  27 h10
M  ZZC  28 c9
M  ZZC  29 h19
M  ZZC  30 c4
M  ZZC  31 c3
M  ZZC  32 h16
M  ZZC  33 c2
M  ZZC  34 h17
M  ZZC  35 c1
M  ZZC  36 h18
M  ZZC  37 c6
M  ZZC  38 h15
M  ZZC  39 c5
M  ZZC  40 c7
M  ZZC  41 h13
M  ZZC  42 h14
M  ZZC  43 c8
M  ZZC  44 h11
M  ZZC  45 h12
M  ZZM   1 5
M  ZZI   1 1
M  ZZM   2 1
M  ZZI   2 112
M  ZZM   3 5
M  ZZI   3 1
M  ZZM   4 3
M  ZZI   4 121
M  ZZM   5 7
M  ZZI   5 81
M  ZZM   6 10
M  ZZI   6 192
M  ZZM   7 3
M  ZZI   7 121
M  ZZM   8 7
M  ZZI   8 81
M  ZZM   9 10
M  ZZI   9 211
M  ZZM  10 28
M  ZZI  10 11
M  ZZM  11 1
M  ZZI  11 112
M  ZZM  12 5
M  ZZI  12 1
M  ZZM  13 5
M  ZZI  13 1
M  ZZM  14 37
M  ZZI  14 124
M  ZZM  15 37
M  ZZI  15 124
M  ZZM  16 37
M  ZZI  16 125
M  ZZM  17 5
M  ZZI  17 1
M  ZZM  18 37
M  ZZI  18 125
M  ZZM  19 5
M  ZZI  19 1
M  ZZM  20 37
M  ZZI  20 125
M  ZZM  21 5
M  ZZI  21 1
M  ZZM  22 37
M  ZZI  22 125
M  ZZM  23 5
M  ZZI  23 1
M  ZZM  24 3
M  ZZI  24 121
M  ZZM  25 7
M  ZZI  25 81
M  ZZM  26 10
M  ZZI  26 211
M  ZZM  27 28
M  ZZI  27 11
M  ZZM  28 1
M  ZZI  28 113
M  ZZM  29 5
M  ZZI  29 1
M  ZZM  30 37
M  ZZI  30 124
M  ZZM  31 37
M  ZZI  31 125
M  ZZM  32 5
M  ZZI  32 1
M  ZZM  33 37
M  ZZI  33 125
M  ZZM  34 5
M  ZZI  34 1
M  ZZM  35 37
M  ZZI  35 125
M  ZZM  36 5
M  ZZI  36 1
M  ZZM  37 37
M  ZZI  37 125
M  ZZM  38 5
M  ZZI  38 1
M  ZZM  39 37
M  ZZI  39 124
M  ZZM  40 1
M  ZZI  40 112
M  ZZM  41 5
M  ZZI  41 1
M  ZZM  42 5
M  ZZI  42 1
M  ZZM  43 1
M  ZZI  43 112
M  ZZM  44 5
M  ZZI  44 1
M  ZZM  45 5
M  ZZI  45 1
M  END
> <NAME>
Z228184226

> <Score>
-26.62522

> <Natom>
45

> <Nflex>
3

> <Hbond>
-3.920225

> <Hphob>
-6.390145

> <VwInt>
-28.145866

> <Eintl>
5.226631

> <Dsolv>
12.229241

> <SolEl>
7.194366

> <mfScore>
-77.335573

> <RecConf>
1

> <molLogP>
2.059368

$$$$
Z1419885248
  MOLSOFT 11211612053D

 45 48  0  0  0  0  0  0  0  0999 V2000
  -29.9468    9.9270   71.5482 H   0  0  0
  -30.1472   10.7197   72.2592 C   0  0  0
  -29.8167   10.5057   73.2671 H   0  0  0
  -31.4009   11.5338   72.0839 C   0  0  0
  -31.8979   11.8714   72.9852 H   0  0  0
  -30.0554   12.1369   71.7770 C   0  0  0
  -29.6984   12.8961   72.4601 H   0  0  0
  -29.7666   12.2935   70.7446 H   0  0  0
  -32.3430   11.1837   70.9558 C   0  0  0
  -32.6261   11.9915   69.8849 C   0  0  0
  -32.2914   12.9706   69.5797 H   0  0  0
  -33.5221   11.2533   69.1759 N   0  0  0
  -33.8014   10.0800   69.7768 N   0  0  0
  -33.0632   10.0218   70.8793 N   0  0  0
  -34.2597   11.6735   68.0012 C   0  0  0
  -35.3207   11.6111   68.2558 H   0  0  0
  -33.9947   12.7117   67.7771 H   0  0  0
  -33.9574   10.8008   66.8155 C   0  0  0
  -33.1477   11.1571   65.9728 O   0  0  0
  -34.7252    9.6477   66.8059 N   0  0  0
  -35.3214    9.4418   67.6013 H   0  0  0
  -34.7289    8.7771   65.7255 C   0  0  0
  -34.0341    8.7771   64.5366 C   0  0  0
  -33.2794    9.4776   64.2109 H   0  0  0
  -34.5430    7.6819   63.8130 C   0  0  0
  -34.2661    7.3517   62.8208 H   0  0  0
  -35.5073    7.0346   64.4756 N   0  0  0
  -35.5374    7.6597   65.6720 N   0  0  0
  -36.4908    7.1976   66.6802 C   0  0  0
  -37.0611    8.0873   66.9541 H   0  0  0
  -37.1885    6.5048   66.1998 H   0  0  0
  -35.8510    6.5768   67.9264 C   0  0  0
  -34.9987    7.1804   68.2553 H   0  0  0
  -36.6007    6.6281   68.7226 H   0  0  0
  -35.3997    5.1346   67.8522 C   0  0  0
  -35.1959    4.4390   66.6659 C   0  0  0
  -35.3796    4.8976   65.7033 H   0  0  0
  -34.7460    3.1355   66.6754 C   0  0  0
  -34.5882    2.6148   65.7374 H   0  0  0
  -34.4933    2.4926   67.8669 C   0  0  0
  -34.1376    1.4675   67.8708 H   0  0  0
  -34.6976    3.1611   69.0526 C   0  0  0
  -34.5034    2.6604   69.9956 H   0  0  0
  -35.1410    4.4680   69.0428 C   0  0  0
  -35.2825    4.9770   69.9915 H   0  0  0
  2  1  1
  2  3  1
  2  4  1
  2  6  1
  4  5  1
  4  6  1
  4  9  1
  6  7  1
  6  8  1
  9 10  2
  9 14  1
 10 11  1
 10 12  1
 12 13  1
 12 15  1
 13 14  2
 15 16  1
 15 17  1
 15 18  1
 18 19  2
 18 20  1
 20 21  1
 20 22  1
 22 23  2
 22 28  1
 23 24  1
 23 25  1
 25 26  1
 25 27  2
 27 28  1
 28 29  1
 29 30  1
 29 31  1
 29 32  1
 32 33  1
 32 34  1
 32 35  1
 35 36  2
 35 44  1
 36 37  1
 36 38  1
 38 39  1
 38 40  2
 40 41  1
 40 42  1
 42 43  1
 42 44  2
 44 45  1
M  ZZC   1 h1
M  ZZC   2 c18
M  ZZC   3 h2
M  ZZC   4 c16
M  ZZC   5 h5
M  ZZC   6 c17
M  ZZC   7 h3
M  ZZC   8 h4
M  ZZC   9 c15
M  ZZC  10 c14
M  ZZC  11 h6
M  ZZC  12 n4
M  ZZC  13 n6
M  ZZC  14 n5
M  ZZC  15 c13
M  ZZC  16 h7
M  ZZC  17 h8
M  ZZC  18 c12
M  ZZC  19 o1
M  ZZC  20 n3
M  ZZC  21 h9
M  ZZC  22 c9
M  ZZC  23 c10
M  ZZC  24 h11
M  ZZC  25 c11
M  ZZC  26 h10
M  ZZC  27 n2
M  ZZC  28 n1
M  ZZC  29 c8
M  ZZC  30 h12
M  ZZC  31 h13
M  ZZC  32 c7
M  ZZC  33 h14
M  ZZC  34 h15
M  ZZC  35 c4
M  ZZC  36 c3
M  ZZC  37 h18
M  ZZC  38 c2
M  ZZC  39 h19
M  ZZC  40 c1
M  ZZC  41 h20
M  ZZC  42 c6
M  ZZC  43 h16
M  ZZC  44 c5
M  ZZC  45 h17
M  ZZM   1 5
M  ZZI   1 1
M  ZZM   2 22
M  ZZI   2 109
M  ZZM   3 5
M  ZZI   3 1
M  ZZM   4 22
M  ZZI   4 109
M  ZZM   5 5
M  ZZI   5 1
M  ZZM   6 22
M  ZZI   6 109
M  ZZM   7 5
M  ZZI   7 1
M  ZZM   8 5
M  ZZI   8 1
M  ZZM   9 64
M  ZZI   9 105
M  ZZM  10 63
M  ZZI  10 104
M  ZZM  11 5
M  ZZI  11 1
M  ZZM  12 39
M  ZZI  12 215
M  ZZM  13 65
M  ZZI  13 207
M  ZZM  14 66
M  ZZI  14 222
M  ZZM  15 1
M  ZZI  15 112
M  ZZM  16 5
M  ZZI  16 1
M  ZZM  17 5
M  ZZI  17 1
M  ZZM  18 3
M  ZZI  18 121
M  ZZM  19 7
M  ZZI  19 81
M  ZZM  20 10
M  ZZI  20 191
M  ZZM  21 28
M  ZZI  21 11
M  ZZM  22 63
M  ZZI  22 104
M  ZZM  23 64
M  ZZI  23 105
M  ZZM  24 5
M  ZZI  24 1
M  ZZM  25 64
M  ZZI  25 105
M  ZZM  26 5
M  ZZI  26 1
M  ZZM  27 65
M  ZZI  27 207
M  ZZM  28 39
M  ZZI  28 215
M  ZZM  29 1
M  ZZI  29 112
M  ZZM  30 5
M  ZZI  30 1
M  ZZM  31 5
M  ZZI  31 1
M  ZZM  32 1
M  ZZI  32 112
M  ZZM  33 5
M  ZZI  33 1
M  ZZM  34 5
M  ZZI  34 1
M  ZZM  35 37
M  ZZI  35 124
M  ZZM  36 37
M  ZZI  36 125
M  ZZM  37 5
M  ZZI  37 1
M  ZZM  38 37
M  ZZI  38 125
M  ZZM  39 5
M  ZZI  39 1
M  ZZM  40 37
M  ZZI  40 125
M  ZZM  41 5
M  ZZI  41 1
M  ZZM  42 37
M  ZZI  42 125
M  ZZM  43 5
M  ZZI  43 1
M  ZZM  44 37
M  ZZI  44 125
M  ZZM  45 5
M  ZZI  45 1
M  END
> <NAME>
Z1419885248

> <Score>
-25.98787

> <Natom>
45

> <Nflex>
6

> <Hbond>
-2.831246

> <Hphob>
-6.427079

> <VwInt>
-29.336319

> <Eintl>
7.856304

> <Dsolv>
11.033535

> <SolEl>
4.458325

> <mfScore>
-80.229098

> <RecConf>
1

> <molLogP>
1.741493

$$$$
Z67741575
  MOLSOFT 11211612053D

 45 47  0  0  0  0  0  0  0  0999 V2000
  -33.8346    1.8347   68.9622 F   0  0  0
  -34.5447    2.8821   68.5148 C   0  0  0
  -34.8187    2.9903   67.1718 C   0  0  0
  -34.4600    2.2340   66.4823 H   0  0  0
  -35.5629    4.0584   66.7165 C   0  0  0
  -35.7827    4.1240   65.6557 H   0  0  0
  -36.0253    5.0323   67.5965 C   0  0  0
  -35.7282    4.9068   68.9481 C   0  0  0
  -36.0769    5.6485   69.6610 H   0  0  0
  -34.9921    3.8310   69.4062 C   0  0  0
  -34.7659    3.7276   70.4618 H   0  0  0
  -36.8558    6.1943   67.1011 C   0  0  0
  -37.7295    5.8487   66.5442 H   0  0  0
  -37.2163    6.8093   67.9306 H   0  0  0
  -36.0827    7.0516   66.2097 N   0  0  0
  -35.4736    8.2315   66.5170 C   0  0  0
  -34.7534    8.5679   65.4443 C   0  0  0
  -34.9428    7.5868   64.4642 C   0  0  0
  -35.8548    6.6921   64.9055 N   0  0  0
  -34.2646    7.4445   63.1634 C   0  0  0
  -34.9932    7.2842   62.3691 H   0  0  0
  -33.5675    6.6034   63.1804 H   0  0  0
  -33.7038    8.3466   62.9109 H   0  0  0
  -33.9824    9.7327   65.5508 C   0  0  0
  -33.3242   10.1358   64.7934 H   0  0  0
  -34.1762   10.2521   66.8263 C   0  0  0
  -35.2883    9.3205   67.8095 S   0  0  0
  -33.5321   11.3912   67.3904 C   0  0  0
  -32.6933   12.0413   66.7875 O   0  0  0
  -33.9362   11.6487   68.6750 N   0  0  0
  -34.6948   11.0997   69.0645 H   0  0  0
  -33.1592   12.4756   69.5737 C   0  0  0
  -32.3362   12.9593   69.0417 H   0  0  0
  -33.8098   13.2323   70.0133 H   0  0  0
  -32.6427   11.5565   70.6646 C   0  0  0
  -33.3615   11.1582   71.5702 O   0  0  0
  -31.3430   11.1398   70.4683 N   0  0  0
  -30.8627   11.4056   69.6146 H   0  0  0
  -30.7078   10.1808   71.3431 C   0  0  0
  -31.3957    9.3470   71.5163 H   0  0  0
  -29.8294    9.7964   70.8165 H   0  0  0
  -30.2993   10.8148   72.6589 C   0  0  0
  -29.7230   10.1091   73.2622 H   0  0  0
  -31.1761   11.1149   73.2399 H   0  0  0
  -29.7044   11.7165   72.4903 H   0  0  0
  2  1  1
  2  3  2
  2 10  1
  3  4  1
  3  5  1
  5  6  1
  5  7  2
  7  8  1
  7 12  1
  8  9  1
  8 10  2
 10 11  1
 12 13  1
 12 14  1
 12 15  1
 15 16  1
 15 19  1
 16 17  2
 16 27  1
 17 18  1
 17 24  1
 18 19  2
 18 20  1
 20 21  1
 20 22  1
 20 23  1
 24 25  1
 24 26  2
 26 27  1
 26 28  1
 28 29  2
 28 30  1
 30 31  1
 30 32  1
 32 33  1
 32 34  1
 32 35  1
 35 36  2
 35 37  1
 37 38  1
 37 39  1
 39 40  1
 39 41  1
 39 42  1
 42 43  1
 42 44  1
 42 45  1
M  ZZC   1 f1
M  ZZC   2 c15
M  ZZC   3 c14
M  ZZC   4 h6
M  ZZC   5 c13
M  ZZC   6 h7
M  ZZC   7 c12
M  ZZC   8 c17
M  ZZC   9 h4
M  ZZC  10 c16
M  ZZC  11 h5
M  ZZC  12 c11
M  ZZC  13 h8
M  ZZC  14 h9
M  ZZC  15 n4
M  ZZC  16 c10
M  ZZC  17 c8
M  ZZC  18 c9
M  ZZC  19 n3
M  ZZC  20 c18
M  ZZC  21 h1
M  ZZC  22 h2
M  ZZC  23 h3
M  ZZC  24 c7
M  ZZC  25 h10
M  ZZC  26 c6
M  ZZC  27 s1
M  ZZC  28 c5
M  ZZC  29 o2
M  ZZC  30 n2
M  ZZC  31 h11
M  ZZC  32 c4
M  ZZC  33 h12
M  ZZC  34 h13
M  ZZC  35 c3
M  ZZC  36 o1
M  ZZC  37 n1
M  ZZC  38 h14
M  ZZC  39 c2
M  ZZC  40 h15
M  ZZC  41 h16
M  ZZC  42 c1
M  ZZC  43 h17
M  ZZC  44 h18
M  ZZC  45 h19
M  ZZM   1 11
M  ZZI   1 90
M  ZZM   2 37
M  ZZI   2 124
M  ZZM   3 37
M  ZZI   3 125
M  ZZM   4 5
M  ZZI   4 1
M  ZZM   5 37
M  ZZI   5 125
M  ZZM   6 5
M  ZZI   6 1
M  ZZM   7 37
M  ZZI   7 124
M  ZZM   8 37
M  ZZI   8 125
M  ZZM   9 5
M  ZZI   9 1
M  ZZM  10 37
M  ZZI  10 125
M  ZZM  11 5
M  ZZI  11 1
M  ZZM  12 1
M  ZZI  12 112
M  ZZM  13 5
M  ZZI  13 1
M  ZZM  14 5
M  ZZI  14 1
M  ZZM  15 39
M  ZZI  15 215
M  ZZM  16 63
M  ZZI  16 104
M  ZZM  17 64
M  ZZI  17 105
M  ZZM  18 64
M  ZZI  18 105
M  ZZM  19 65
M  ZZI  19 207
M  ZZM  20 1
M  ZZI  20 111
M  ZZM  21 5
M  ZZI  21 1
M  ZZM  22 5
M  ZZI  22 1
M  ZZM  23 5
M  ZZI  23 1
M  ZZM  24 64
M  ZZI  24 105
M  ZZM  25 5
M  ZZI  25 1
M  ZZM  26 63
M  ZZI  26 104
M  ZZM  27 44
M  ZZI  27 248
M  ZZM  28 3
M  ZZI  28 121
M  ZZM  29 7
M  ZZI  29 81
M  ZZM  30 10
M  ZZI  30 211
M  ZZM  31 28
M  ZZI  31 11
M  ZZM  32 1
M  ZZI  32 112
M  ZZM  33 5
M  ZZI  33 1
M  ZZM  34 5
M  ZZI  34 1
M  ZZM  35 3
M  ZZI  35 121
M  ZZM  36 7
M  ZZI  36 81
M  ZZM  37 10
M  ZZI  37 211
M  ZZM  38 28
M  ZZI  38 11
M  ZZM  39 1
M  ZZI  39 112
M  ZZM  40 5
M  ZZI  40 1
M  ZZM  41 5
M  ZZI  41 1
M  ZZM  42 1
M  ZZI  42 111
M  ZZM  43 5
M  ZZI  43 1
M  ZZM  44 5
M  ZZI  44 1
M  ZZM  45 5
M  ZZI  45 1
M  END
> <NAME>
Z67741575

> <Score>
-25.96522

> <Natom>
45

> <Nflex>
5

> <Hbond>
-3.52143

> <Hphob>
-7.360104

> <VwInt>
-29.0284

> <Eintl>
8.043393

> <Dsolv>
13.307091

> <SolEl>
5.944471

> <mfScore>
-96.804609

> <RecConf>
1

> <molLogP>
2.678091

$$$$
Z1139413465
  MOLSOFT 11211612053D

 45 47  0  0  1  0  0  0  0  0999 V2000
  -32.7551    7.7685   62.1683 H   0  0  0
  -32.7812    7.9188   63.2370 C   0  0  0
  -31.7501    8.3012   64.0601 C   0  0  0
  -30.7509    8.4964   63.6970 H   0  0  0
  -32.1516    8.3896   65.4152 C   0  0  0
  -31.4845    8.6653   66.2205 H   0  0  0
  -33.4907    8.0946   65.6065 C   0  0  0
  -34.2308    7.6512   64.1061 S   0  0  0
  -34.2711    8.0829   66.8926 C   0  0  1
  -34.2012    7.0567   67.2573 H   0  0  0
  -33.5961    8.9280   67.9167 N   0  0  0
  -33.8150   10.3809   67.7562 C   0  0  0
  -33.5154   10.7098   66.7561 H   0  0  0
  -34.8742   10.6309   67.8805 H   0  0  0
  -33.0011   11.1414   68.8033 C   0  0  1
  -31.9312   10.9388   68.6776 H   0  0  0
  -33.2383   12.6320   68.6732 C   0  0  0
  -32.6512   13.1783   69.4145 H   0  0  0
  -34.2863   12.8726   68.8639 H   0  0  0
  -32.9672   12.9868   67.6755 H   0  0  0
  -33.3962   10.7475   70.1259 O   0  0  0
  -33.1618    9.3466   70.3084 C   0  0  0
  -32.0867    9.1456   70.2354 H   0  0  0
  -33.4761    9.0862   71.3233 H   0  0  0
  -33.9503    8.5272   69.2936 C   0  0  0
  -33.7288    7.4678   69.4526 H   0  0  0
  -35.0205    8.6715   69.4748 H   0  0  0
  -35.7655    8.4627   66.7029 C   0  0  0
  -35.8438    9.2809   65.9784 H   0  0  0
  -36.1887    8.8702   67.6241 H   0  0  0
  -36.6615    7.3812   66.2536 N   0  0  0
  -37.5439    7.8292   66.0019 H   0  0  0
  -36.9663    6.4320   67.3355 C   0  0  0
  -37.9701    6.0394   67.1630 H   0  0  0
  -37.0227    6.9432   68.2993 H   0  0  0
  -36.0366    5.2532   67.4397 C   0  0  0
  -35.6230    4.5364   66.3267 C   0  0  0
  -35.9225    4.8316   65.3264 H   0  0  0
  -34.8260    3.4257   66.5131 C   0  0  0
  -34.4847    2.8400   65.6675 H   0  0  0
  -34.4761    3.0619   67.7955 C   0  0  0
  -33.8542    2.1893   67.9699 H   0  0  0
  -34.8551    3.7214   68.8952 N   0  0  0
  -35.6298    4.7920   68.6836 C   0  0  0
  -35.9408    5.2997   69.5917 H   0  0  0
  2  1  1
  2  3  2
  2  8  1
  3  4  1
  3  5  1
  5  6  1
  5  7  2
  7  8  1
  9  7  1
  9 10  1
  9 11  1
  9 28  1
 11 12  1
 11 25  1
 12 13  1
 12 14  1
 15 12  1
 15 16  1
 15 17  1
 15 21  1
 17 18  1
 17 19  1
 17 20  1
 21 22  1
 22 23  1
 22 24  1
 22 25  1
 25 26  1
 25 27  1
 28 29  1
 28 30  1
 28 31  1
 31 32  1
 31 33  1
 33 34  1
 33 35  1
 33 36  1
 36 37  2
 36 44  1
 37 38  1
 37 39  1
 39 40  1
 39 41  2
 41 42  1
 41 43  1
 43 44  2
 44 45  1
M  ZZC   1 h1
M  ZZC   2 c17
M  ZZC   3 c16
M  ZZC   4 h2
M  ZZC   5 c15
M  ZZC   6 h3
M  ZZC   7 c14
M  ZZC   8 s1
M  ZZC   9 c6
M  ZZC  10 h22
M  ZZC  11 n1
M  ZZC  12 c3
M  ZZC  13 h17
M  ZZC  14 h18
M  ZZC  15 c2
M  ZZC  16 h23
M  ZZC  17 c1
M  ZZC  18 h19
M  ZZC  19 h20
M  ZZC  20 h21
M  ZZC  21 o1
M  ZZC  22 c5
M  ZZC  23 h13
M  ZZC  24 h14
M  ZZC  25 c4
M  ZZC  26 h15
M  ZZC  27 h16
M  ZZC  28 c7
M  ZZC  29 h11
M  ZZC  30 h12
M  ZZC  31 n2
M  ZZC  32 h10
M  ZZC  33 c8
M  ZZC  34 h8
M  ZZC  35 h9
M  ZZC  36 c9
M  ZZC  37 c10
M  ZZC  38 h7
M  ZZC  39 c11
M  ZZC  40 h6
M  ZZC  41 c12
M  ZZC  42 h5
M  ZZC  43 n3
M  ZZC  44 c13
M  ZZC  45 h4
M  ZZM   1 5
M  ZZI   1 1
M  ZZM   2 63
M  ZZI   2 104
M  ZZM   3 64
M  ZZI   3 105
M  ZZM   4 5
M  ZZI   4 1
M  ZZM   5 64
M  ZZI   5 105
M  ZZM   6 5
M  ZZI   6 1
M  ZZM   7 63
M  ZZI   7 104
M  ZZM   8 44
M  ZZI   8 248
M  ZZM   9 1
M  ZZI   9 113
M  ZZM  10 5
M  ZZI  10 1
M  ZZM  11 8
M  ZZI  11 216
M  ZZM  12 1
M  ZZI  12 112
M  ZZM  13 5
M  ZZI  13 1
M  ZZM  14 5
M  ZZI  14 1
M  ZZM  15 1
M  ZZI  15 113
M  ZZM  16 5
M  ZZI  16 1
M  ZZM  17 1
M  ZZI  17 111
M  ZZM  18 5
M  ZZI  18 1
M  ZZM  19 5
M  ZZI  19 1
M  ZZM  20 5
M  ZZI  20 1
M  ZZM  21 6
M  ZZI  21 65
M  ZZM  22 1
M  ZZI  22 112
M  ZZM  23 5
M  ZZI  23 1
M  ZZM  24 5
M  ZZI  24 1
M  ZZM  25 1
M  ZZI  25 112
M  ZZM  26 5
M  ZZI  26 1
M  ZZM  27 5
M  ZZI  27 1
M  ZZM  28 1
M  ZZI  28 112
M  ZZM  29 5
M  ZZI  29 1
M  ZZM  30 5
M  ZZI  30 1
M  ZZM  31 8
M  ZZI  31 214
M  ZZM  32 23
M  ZZI  32 10
M  ZZM  33 1
M  ZZI  33 112
M  ZZM  34 5
M  ZZI  34 1
M  ZZM  35 5
M  ZZI  35 1
M  ZZM  36 37
M  ZZI  36 124
M  ZZM  37 37
M  ZZI  37 125
M  ZZM  38 5
M  ZZI  38 1
M  ZZM  39 37
M  ZZI  39 125
M  ZZM  40 5
M  ZZI  40 1
M  ZZM  41 37
M  ZZI  41 125
M  ZZM  42 5
M  ZZI  42 1
M  ZZM  43 38
M  ZZI  43 223
M  ZZM  44 37
M  ZZI  44 125
M  ZZM  45 5
M  ZZI  45 1
M  END
> <NAME>
Z1139413465

> <Score>
-25.792074

> <Natom>
45

> <Nflex>
6

> <Hbond>
-2.788573

> <Hphob>
-7.817354

> <VwInt>
-28.238502

> <Eintl>
9.941796

> <Dsolv>
9.097392

> <SolEl>
6.539546

> <mfScore>
-74.095747

> <RecConf>
1

> <molLogP>
1.164446

$$$$
Z26324353
  MOLSOFT 11211612053D

 45 47  0  0  0  0  0  0  0  0999 V2000
  -33.7269    0.7412   68.9482 Cl  0  0  0
  -34.3808    2.3302   68.8008 C   0  0  0
  -34.8494    2.7637   67.5782 C   0  0  0
  -34.8067    2.1132   66.7103 H   0  0  0
  -35.3651    4.0362   67.4422 C   0  0  0
  -35.7014    4.3341   66.4561 H   0  0  0
  -35.4146    4.8898   68.5420 C   0  0  0
  -34.9276    4.4444   69.7688 C   0  0  0
  -34.4092    3.1640   69.9000 C   0  0  0
  -34.0216    2.8178   70.8543 H   0  0  0
  -34.8697    5.3402   70.9533 C   0  0  0
  -33.9627    5.2352   71.7655 O   0  0  0
  -35.8873    6.2484   71.0693 N   0  0  0
  -35.9119    6.8833   71.8590 H   0  0  0
  -36.6328    6.3245   70.3859 H   0  0  0
  -35.8635    6.2158   68.4759 O   0  0  0
  -36.6210    6.5407   67.2967 C   0  0  0
  -37.3293    5.7490   67.0454 H   0  0  0
  -37.2207    7.4154   67.5411 H   0  0  0
  -35.7801    6.9271   66.1037 C   0  0  0
  -36.2282    6.7846   64.9774 O   0  0  0
  -34.5460    7.4392   66.4462 N   0  0  0
  -34.3299    7.5228   67.4356 H   0  0  0
  -33.5313    7.8083   65.5333 C   0  0  0
  -33.6645    7.6647   64.1584 C   0  0  0
  -34.5739    7.2870   63.7080 H   0  0  0
  -32.6179    7.9992   63.3239 C   0  0  0
  -32.7249    7.8738   62.2509 H   0  0  0
  -31.4268    8.4615   63.8418 C   0  0  0
  -30.6001    8.6912   63.1767 H   0  0  0
  -31.2806    8.6072   65.2059 C   0  0  0
  -30.3351    8.9397   65.6207 H   0  0  0
  -32.3416    8.3166   66.0410 C   0  0  0
  -32.1563    8.4475   67.4147 O   0  0  0
  -32.5544    9.6679   67.9697 C   0  0  0
  -33.2334   10.6523   67.2627 C   0  0  0
  -33.4971   10.5280   66.2194 H   0  0  0
  -33.6021   11.8176   67.9042 C   0  0  0
  -34.1381   12.5885   67.3622 H   0  0  0
  -33.3039   12.0038   69.2377 C   0  0  0
  -33.5979   12.9223   69.7345 H   0  0  0
  -32.6326   11.0245   69.9400 C   0  0  0
  -32.3937   11.1772   70.9877 H   0  0  0
  -32.2573    9.8563   69.3055 C   0  0  0
  -31.7278    9.0875   69.8592 H   0  0  0
  2  1  1
  2  3  1
  2  9  2
  3  4  1
  3  5  2
  5  6  1
  5  7  1
  7  8  2
  7 16  1
  8  9  1
  8 11  1
  9 10  1
 11 12  2
 11 13  1
 13 14  1
 13 15  1
 16 17  1
 17 18  1
 17 19  1
 17 20  1
 20 21  2
 20 22  1
 22 23  1
 22 24  1
 24 25  2
 24 33  1
 25 26  1
 25 27  1
 27 28  1
 27 29  2
 29 30  1
 29 31  1
 31 32  1
 31 33  2
 33 34  1
 34 35  1
 35 36  2
 35 44  1
 36 37  1
 36 38  1
 38 39  1
 38 40  2
 40 41  1
 40 42  1
 42 43  1
 42 44  2
 44 45  1
M  ZZC   1 &Cl1
M  ZZC   2 c18
M  ZZC   3 c17
M  ZZC   4 h4
M  ZZC   5 c16
M  ZZC   6 h5
M  ZZC   7 c15
M  ZZC   8 c20
M  ZZC   9 c19
M  ZZC  10 h3
M  ZZC  11 c21
M  ZZC  12 o4
M  ZZC  13 n2
M  ZZC  14 h1
M  ZZC  15 h2
M  ZZC  16 o3
M  ZZC  17 c14
M  ZZC  18 h6
M  ZZC  19 h7
M  ZZC  20 c13
M  ZZC  21 o2
M  ZZC  22 n1
M  ZZC  23 h8
M  ZZC  24 c12
M  ZZC  25 c11
M  ZZC  26 h9
M  ZZC  27 c10
M  ZZC  28 h10
M  ZZC  29 c9
M  ZZC  30 h11
M  ZZC  31 c8
M  ZZC  32 h12
M  ZZC  33 c7
M  ZZC  34 o1
M  ZZC  35 c4
M  ZZC  36 c3
M  ZZC  37 h15
M  ZZC  38 c2
M  ZZC  39 h16
M  ZZC  40 c1
M  ZZC  41 h17
M  ZZC  42 c6
M  ZZC  43 h13
M  ZZC  44 c5
M  ZZC  45 h14
M  ZZM   1 12
M  ZZI   1 92
M  ZZM   2 37
M  ZZI   2 124
M  ZZM   3 37
M  ZZI   3 125
M  ZZM   4 5
M  ZZI   4 1
M  ZZM   5 37
M  ZZI   5 125
M  ZZM   6 5
M  ZZI   6 1
M  ZZM   7 37
M  ZZI   7 124
M  ZZM   8 37
M  ZZI   8 124
M  ZZM   9 37
M  ZZI   9 125
M  ZZM  10 5
M  ZZI  10 1
M  ZZM  11 3
M  ZZI  11 121
M  ZZM  12 7
M  ZZI  12 81
M  ZZM  13 10
M  ZZI  13 212
M  ZZM  14 28
M  ZZI  14 11
M  ZZM  15 28
M  ZZI  15 11
M  ZZM  16 6
M  ZZI  16 59
M  ZZM  17 1
M  ZZI  17 112
M  ZZM  18 5
M  ZZI  18 1
M  ZZM  19 5
M  ZZI  19 1
M  ZZM  20 3
M  ZZI  20 121
M  ZZM  21 7
M  ZZI  21 81
M  ZZM  22 10
M  ZZI  22 191
M  ZZM  23 28
M  ZZI  23 11
M  ZZM  24 37
M  ZZI  24 124
M  ZZM  25 37
M  ZZI  25 125
M  ZZM  26 5
M  ZZI  26 1
M  ZZM  27 37
M  ZZI  27 125
M  ZZM  28 5
M  ZZI  28 1
M  ZZM  29 37
M  ZZI  29 125
M  ZZM  30 5
M  ZZI  30 1
M  ZZM  31 37
M  ZZI  31 125
M  ZZM  32 5
M  ZZI  32 1
M  ZZM  33 37
M  ZZI  33 124
M  ZZM  34 6
M  ZZI  34 59
M  ZZM  35 37
M  ZZI  35 124
M  ZZM  36 37
M  ZZI  36 125
M  ZZM  37 5
M  ZZI  37 1
M  ZZM  38 37
M  ZZI  38 125
M  ZZM  39 5
M  ZZI  39 1
M  ZZM  40 37
M  ZZI  40 125
M  ZZM  41 5
M  ZZI  41 1
M  ZZM  42 37
M  ZZI  42 125
M  ZZM  43 5
M  ZZI  43 1
M  ZZM  44 37
M  ZZI  44 125
M  ZZM  45 5
M  ZZI  45 1
M  END
> <NAME>
Z26324353

> <Score>
-25.737847

> <Natom>
45

> <Nflex>
3

> <Hbond>
-2.215678

> <Hphob>
-7.882392

> <VwInt>
-30.303692

> <Eintl>
5.853165

> <Dsolv>
12.011622

> <SolEl>
7.036357

> <mfScore>
-111.433083

> <RecConf>
1

> <molLogP>
3.559928

$$$$
Z1174478479
  MOLSOFT 11211612053D

 45 46  0  0  1  0  0  0  0  0999 V2000
  -29.7290   13.0387   73.2928 H   0  0  0
  -30.5574   12.7693   72.6576 C   0  0  0
  -31.8443   13.2589   72.6628 C   0  0  0
  -32.2209   14.0180   73.3312 H   0  0  0
  -32.6871   12.7330   71.7174 N   0  0  0
  -32.0194   11.8902   70.9592 C   0  0  0
  -30.3892   11.6032   71.4219 S   0  0  0
  -32.5653   11.2656   69.7292 C   0  0  2
  -31.7541   10.7520   69.1990 H   0  0  0
  -33.1099   12.3536   68.8059 C   0  0  0
  -33.8938   12.9302   69.3083 H   0  0  0
  -32.3194   13.0635   68.5552 H   0  0  0
  -33.6650   11.7556   67.5319 C   0  0  0
  -34.0962   12.5432   66.9129 H   0  0  0
  -32.8440   11.3149   66.9594 H   0  0  0
  -34.7125   10.7052   67.8503 C   0  0  0
  -35.0735   10.2474   66.9301 H   0  0  0
  -35.5766   11.1684   68.3321 H   0  0  0
  -34.1984    9.7127   68.7857 N   0  0  0
  -33.6533   10.2365   70.0332 C   0  0  0
  -33.2450    9.4213   70.6388 H   0  0  0
  -34.4731   10.6711   70.6101 H   0  0  0
  -34.2238    8.3351   68.5775 C   0  0  0
  -34.0317    7.5355   69.4837 O   0  0  0
  -34.3719    7.8517   67.1312 C   0  0  2
  -35.2009    8.3524   66.6242 H   0  0  0
  -34.6835    6.4272   67.1935 N   0  0  0
  -34.2970    5.8941   67.9678 H   0  0  0
  -35.4812    5.7860   66.2679 C   0  0  0
  -36.0543    6.3336   65.3372 O   0  0  0
  -35.5547    4.3025   66.4999 C   0  0  0
  -34.5971    3.8411   66.2408 H   0  0  0
  -36.3360    3.8726   65.8697 H   0  0  0
  -35.7869    4.0930   67.5484 H   0  0  0
  -33.0156    8.1191   66.4492 C   0  0  0
  -32.2228    7.6973   67.0722 H   0  0  0
  -32.8113    9.1908   66.4212 H   0  0  0
  -32.8419    7.5590   65.0455 C   0  0  0
  -33.1040    6.5017   64.9952 H   0  0  0
  -31.7883    7.6480   64.7609 H   0  0  0
  -33.6312    8.2893   63.9994 C   0  0  0
  -34.3176    9.2773   64.2074 O   0  0  0
  -33.4665    7.7217   62.7718 N   0  0  0
  -33.9447    8.1144   61.9738 H   0  0  0
  -32.8192    6.9590   62.6022 H   0  0  0
  2  1  1
  2  3  2
  2  7  1
  3  4  1
  3  5  1
  5  6  2
  6  7  1
  8  6  1
  8  9  1
  8 10  1
  8 20  1
 10 11  1
 10 12  1
 10 13  1
 13 14  1
 13 15  1
 13 16  1
 16 17  1
 16 18  1
 16 19  1
 19 20  1
 19 23  1
 20 21  1
 20 22  1
 23 24  2
 25 23  1
 25 26  1
 25 27  1
 25 35  1
 27 28  1
 27 29  1
 29 30  2
 29 31  1
 31 32  1
 31 33  1
 31 34  1
 35 36  1
 35 37  1
 35 38  1
 38 39  1
 38 40  1
 38 41  1
 41 42  2
 41 43  1
 43 44  1
 43 45  1
M  ZZC   1 h1
M  ZZC   2 c15
M  ZZC   3 c14
M  ZZC   4 h2
M  ZZC   5 n4
M  ZZC   6 c13
M  ZZC   7 s1
M  ZZC   8 c11
M  ZZC   9 h21
M  ZZC  10 c10
M  ZZC  11 h5
M  ZZC  12 h6
M  ZZC  13 c9
M  ZZC  14 h7
M  ZZC  15 h8
M  ZZC  16 c8
M  ZZC  17 h10
M  ZZC  18 h9
M  ZZC  19 n3
M  ZZC  20 c12
M  ZZC  21 h3
M  ZZC  22 h4
M  ZZC  23 c7
M  ZZC  24 o3
M  ZZC  25 c3
M  ZZC  26 h22
M  ZZC  27 n1
M  ZZC  28 h17
M  ZZC  29 c2
M  ZZC  30 o1
M  ZZC  31 c1
M  ZZC  32 h18
M  ZZC  33 h19
M  ZZC  34 h20
M  ZZC  35 c4
M  ZZC  36 h15
M  ZZC  37 h16
M  ZZC  38 c5
M  ZZC  39 h13
M  ZZC  40 h14
M  ZZC  41 c6
M  ZZC  42 o2
M  ZZC  43 n2
M  ZZC  44 h11
M  ZZC  45 h12
M  ZZM   1 5
M  ZZI   1 1
M  ZZM   2 63
M  ZZI   2 104
M  ZZM   3 64
M  ZZI   3 105
M  ZZM   4 5
M  ZZI   4 1
M  ZZM   5 66
M  ZZI   5 222
M  ZZM   6 63
M  ZZI   6 104
M  ZZM   7 44
M  ZZI   7 248
M  ZZM   8 1
M  ZZI   8 113
M  ZZM   9 5
M  ZZI   9 1
M  ZZM  10 1
M  ZZI  10 112
M  ZZM  11 5
M  ZZI  11 1
M  ZZM  12 5
M  ZZI  12 1
M  ZZM  13 1
M  ZZI  13 112
M  ZZM  14 5
M  ZZI  14 1
M  ZZM  15 5
M  ZZI  15 1
M  ZZM  16 1
M  ZZI  16 112
M  ZZM  17 5
M  ZZI  17 1
M  ZZM  18 5
M  ZZI  18 1
M  ZZM  19 10
M  ZZI  19 192
M  ZZM  20 1
M  ZZI  20 112
M  ZZM  21 5
M  ZZI  21 1
M  ZZM  22 5
M  ZZI  22 1
M  ZZM  23 3
M  ZZI  23 121
M  ZZM  24 7
M  ZZI  24 81
M  ZZM  25 1
M  ZZI  25 113
M  ZZM  26 5
M  ZZI  26 1
M  ZZM  27 10
M  ZZI  27 211
M  ZZM  28 28
M  ZZI  28 11
M  ZZM  29 3
M  ZZI  29 121
M  ZZM  30 7
M  ZZI  30 81
M  ZZM  31 1
M  ZZI  31 111
M  ZZM  32 5
M  ZZI  32 1
M  ZZM  33 5
M  ZZI  33 1
M  ZZM  34 5
M  ZZI  34 1
M  ZZM  35 1
M  ZZI  35 112
M  ZZM  36 5
M  ZZI  36 1
M  ZZM  37 5
M  ZZI  37 1
M  ZZM  38 1
M  ZZI  38 112
M  ZZM  39 5
M  ZZI  39 1
M  ZZM  40 5
M  ZZI  40 1
M  ZZM  41 3
M  ZZI  41 121
M  ZZM  42 7
M  ZZI  42 81
M  ZZM  43 10
M  ZZI  43 212
M  ZZM  44 28
M  ZZI  44 11
M  ZZM  45 28
M  ZZI  45 11
M  END
> <NAME>
Z1174478479

> <Score>
-25.524946

> <Natom>
45

> <Nflex>
7

> <Hbond>
-6.111031

> <Hphob>
-5.887781

> <VwInt>
-23.936345

> <Eintl>
4.111335

> <Dsolv>
13.848918

> <SolEl>
4.894593

> <mfScore>
-58.616984

> <RecConf>
1

> <molLogP>
-0.429075

$$$$
Z27623391
  MOLSOFT 11211612053D

 45 48  0  0  1  0  0  0  0  0999 V2000
  -34.4204    2.0367   72.4126 F   0  0  0
  -34.6209    2.4954   71.1677 C   0  0  0
  -34.3096    1.6919   70.1027 C   0  0  0
  -33.9065    0.7027   70.2813 H   0  0  0
  -34.5027    2.1393   68.8157 C   0  0  0
  -34.2485    1.4848   67.9871 H   0  0  0
  -35.0119    3.4176   68.5912 C   0  0  0
  -35.3057    4.2089   69.6995 C   0  0  0
  -35.1242    3.7608   70.9944 C   0  0  0
  -35.3567    4.3788   71.8554 H   0  0  0
  -35.8915    5.7607   69.2378 S   0  0  0
  -35.7650    5.3904   67.5682 C   0  0  0
  -35.2906    4.1086   67.3724 C   0  0  0
  -34.9984    3.3963   65.8511 Cl  0  0  0
  -36.1064    6.4040   66.6087 C   0  0  0
  -36.3372    6.1797   65.4308 O   0  0  0
  -36.0735    7.6775   67.1327 N   0  0  0
  -35.9574    7.7822   68.1355 H   0  0  0
  -36.1914    8.8794   66.3131 C   0  0  0
  -36.8368    9.5688   66.8605 H   0  0  0
  -36.7166    8.6227   65.3884 H   0  0  0
  -34.8323    9.5494   65.9912 C   0  0  1
  -35.0070   10.3371   65.2511 H   0  0  0
  -34.2382   10.1973   67.2029 C   0  0  0
  -33.8885    9.7689   68.4706 C   0  0  0
  -33.9936    8.7716   68.8722 H   0  0  0
  -33.3549   10.8933   69.1438 C   0  0  0
  -32.9770   10.9415   70.1552 H   0  0  0
  -33.3978   11.9345   68.2485 C   0  0  0
  -33.1033   12.9729   68.2937 H   0  0  0
  -33.9242   11.5197   67.0644 O   0  0  0
  -33.8985    8.5519   65.3163 N   0  3  0
  -33.9577    7.6766   65.8537 H   0  0  0
  -34.2733    8.2206   63.9043 C   0  0  0
  -34.5197    9.1542   63.3915 H   0  0  0
  -35.1249    7.5395   63.8867 H   0  0  0
  -33.0162    7.6009   63.3678 C   0  0  0
  -32.9125    6.5915   63.7727 H   0  0  0
  -33.0061    7.5435   62.2763 H   0  0  0
  -31.9377    8.5013   63.9115 C   0  0  0
  -30.9625    8.0068   63.9553 H   0  0  0
  -31.8290    9.3787   63.2658 H   0  0  0
  -32.4348    8.9215   65.2838 C   0  0  0
  -31.9373    8.3758   66.0928 H   0  0  0
  -32.3170    9.9982   65.4307 H   0  0  0
  2  1  1
  2  3  1
  2  9  2
  3  4  1
  3  5  2
  5  6  1
  5  7  1
  7  8  2
  7 13  1
  8  9  1
  8 11  1
  9 10  1
 11 12  1
 12 13  2
 12 15  1
 13 14  1
 15 16  2
 15 17  1
 17 18  1
 17 19  1
 19 20  1
 19 21  1
 22 19  1
 22 23  1
 22 24  1
 22 32  1
 24 25  2
 24 31  1
 25 26  1
 25 27  1
 27 28  1
 27 29  2
 29 30  1
 29 31  1
 32 33  1
 32 34  1
 32 43  1
 34 35  1
 34 36  1
 34 37  1
 37 38  1
 37 39  1
 37 40  1
 40 41  1
 40 42  1
 40 43  1
 43 44  1
 43 45  1
M  ZZC   1 f1
M  ZZC   2 c13
M  ZZC   3 c12
M  ZZC   4 h11
M  ZZC   5 c11
M  ZZC   6 h12
M  ZZC   7 c10
M  ZZC   8 c15
M  ZZC   9 c14
M  ZZC  10 h10
M  ZZC  11 s1
M  ZZC  12 c8
M  ZZC  13 c9
M  ZZC  14 &Cl1
M  ZZC  15 c7
M  ZZC  16 o2
M  ZZC  17 n1
M  ZZC  18 h13
M  ZZC  19 c6
M  ZZC  20 h14
M  ZZC  21 h15
M  ZZC  22 c5
M  ZZC  23 h19
M  ZZC  24 c3
M  ZZC  25 c2
M  ZZC  26 h17
M  ZZC  27 c1
M  ZZC  28 h18
M  ZZC  29 c4
M  ZZC  30 h16
M  ZZC  31 o1
M  ZZC  32 n2
M  ZZC  33 h1
M  ZZC  34 c16
M  ZZC  35 h8
M  ZZC  36 h9
M  ZZC  37 c17
M  ZZC  38 h6
M  ZZC  39 h7
M  ZZC  40 c18
M  ZZC  41 h4
M  ZZC  42 h5
M  ZZC  43 c19
M  ZZC  44 h2
M  ZZC  45 h3
M  ZZM   1 11
M  ZZI   1 90
M  ZZM   2 37
M  ZZI   2 124
M  ZZM   3 37
M  ZZI   3 125
M  ZZM   4 5
M  ZZI   4 1
M  ZZM   5 37
M  ZZI   5 125
M  ZZM   6 5
M  ZZI   6 1
M  ZZM   7 64
M  ZZI   7 105
M  ZZM   8 63
M  ZZI   8 104
M  ZZM   9 37
M  ZZI   9 125
M  ZZM  10 5
M  ZZI  10 1
M  ZZM  11 44
M  ZZI  11 248
M  ZZM  12 63
M  ZZI  12 104
M  ZZM  13 64
M  ZZI  13 105
M  ZZM  14 12
M  ZZI  14 92
M  ZZM  15 3
M  ZZI  15 121
M  ZZM  16 7
M  ZZI  16 81
M  ZZM  17 10
M  ZZI  17 211
M  ZZM  18 28
M  ZZI  18 11
M  ZZM  19 1
M  ZZI  19 112
M  ZZM  20 5
M  ZZI  20 1
M  ZZM  21 5
M  ZZI  21 1
M  ZZM  22 1
M  ZZI  22 113
M  ZZM  23 5
M  ZZI  23 1
M  ZZM  24 63
M  ZZI  24 104
M  ZZM  25 64
M  ZZI  25 105
M  ZZM  26 5
M  ZZI  26 1
M  ZZM  27 64
M  ZZI  27 105
M  ZZM  28 5
M  ZZI  28 1
M  ZZM  29 63
M  ZZI  29 104
M  ZZM  30 5
M  ZZI  30 1
M  ZZM  31 59
M  ZZI  31 56
M  ZZM  32 34
M  ZZI  32 231
M  ZZM  33 36
M  ZZI  33 17
M  ZZM  34 1
M  ZZI  34 112
M  ZZM  35 5
M  ZZI  35 1
M  ZZM  36 5
M  ZZI  36 1
M  ZZM  37 1
M  ZZI  37 112
M  ZZM  38 5
M  ZZI  38 1
M  ZZM  39 5
M  ZZI  39 1
M  ZZM  40 1
M  ZZI  40 112
M  ZZM  41 5
M  ZZI  41 1
M  ZZM  42 5
M  ZZI  42 1
M  ZZM  43 1
M  ZZI  43 112
M  ZZM  44 5
M  ZZI  44 1
M  ZZM  45 5
M  ZZI  45 1
M  CHG  1  32   1
M  END
> <NAME>
Z27623391

> <Score>
-25.482739

> <Natom>
45

> <Nflex>
4

> <Hbond>
-2.446259

> <Hphob>
-7.80473

> <VwInt>
-30.843379

> <Eintl>
4.342417

> <Dsolv>
8.013766

> <SolEl>
12.679576

> <mfScore>
-95.830978

> <RecConf>
1

> <molLogP>
3.705239

$$$$
Z19713831
  MOLSOFT 11211612053D

 45 47  0  0  0  0  0  0  0  0999 V2000
  -35.9937    6.8099   64.7737 O   0  0  0
  -35.0909    7.0992   65.5475 C   0  0  0
  -35.1626    6.6329   66.9554 C   0  0  0
  -35.1574    5.3119   67.1757 C   0  0  0
  -35.1795    4.4276   66.1237 N   0  0  0
  -35.1680    3.4239   66.2903 H   0  0  0
  -35.3192    4.7672   65.1730 H   0  0  0
  -35.1189    4.8522   68.4699 N   0  0  0
  -35.0691    3.4142   68.7136 C   0  0  0
  -35.1092    3.1890   69.7823 H   0  0  0
  -34.1315    3.0112   68.3168 H   0  0  0
  -35.9166    2.9221   68.2299 H   0  0  0
  -35.0562    5.6830   69.5717 C   0  0  0
  -34.9984    5.2497   70.7127 O   0  0  0
  -35.0558    7.0353   69.3209 N   0  0  0
  -35.2283    7.5831   68.0736 C   0  0  0
  -35.4388    8.7669   67.8545 O   0  0  0
  -34.9335    7.9274   70.4617 C   0  0  0
  -34.9837    8.9775   70.1612 H   0  0  0
  -33.9739    7.7410   70.9542 H   0  0  0
  -35.7310    7.7092   71.1783 H   0  0  0
  -33.8663    7.8742   65.0950 C   0  0  0
  -34.1975    8.6616   64.4112 H   0  0  0
  -33.2013    7.1901   64.5590 H   0  0  0
  -33.1539    8.4172   66.2161 O   0  0  0
  -32.9618    9.7723   66.1621 C   0  0  0
  -33.1415   10.5036   65.1976 O   0  0  0
  -32.5751   10.2318   67.5141 C   0  0  0
  -31.7255    9.4748   68.3064 C   0  0  0
  -31.2804    8.5631   67.9190 H   0  0  0
  -31.4462    9.8953   69.6005 C   0  0  0
  -30.5940    9.1559   70.4052 C   0  0  0
  -30.1216    8.2543   70.0274 H   0  0  0
  -30.3418    9.5533   71.7022 C   0  0  0
  -29.6994    8.9530   72.3371 H   0  0  0
  -30.9099   10.7079   72.1972 C   0  0  0
  -30.7015   11.0217   73.2154 H   0  0  0
  -31.7479   11.4614   71.4009 C   0  0  0
  -32.1894   12.3675   71.8058 H   0  0  0
  -32.0264   11.0574   70.1037 C   0  0  0
  -32.8755   11.8097   69.3079 C   0  0  0
  -33.3249   12.7219   69.6879 H   0  0  0
  -33.1376   11.3915   68.0199 C   0  0  0
  -33.9920   12.1288   67.2303 O   0  0  0
  -34.5520   12.6736   67.8135 H   0  0  0
  2  1  2
  2  3  1
  2 22  1
  3  4  2
  3 16  1
  4  5  1
  4  8  1
  5  6  1
  5  7  1
  8  9  1
  8 13  1
  9 10  1
  9 11  1
  9 12  1
 13 14  2
 13 15  1
 15 16  1
 15 18  1
 16 17  2
 18 19  1
 18 20  1
 18 21  1
 22 23  1
 22 24  1
 22 25  1
 25 26  1
 26 27  2
 26 28  1
 28 29  2
 28 43  1
 29 30  1
 29 31  1
 31 32  2
 31 40  1
 32 33  1
 32 34  1
 34 35  1
 34 36  2
 36 37  1
 36 38  1
 38 39  1
 38 40  2
 40 41  1
 41 42  1
 41 43  2
 43 44  1
 44 45  1
M  ZZC   1 o3
M  ZZC   2 c7
M  ZZC   3 c3
M  ZZC   4 c2
M  ZZC   5 n3
M  ZZC   6 h1
M  ZZC   7 h2
M  ZZC   8 n1
M  ZZC   9 c1
M  ZZC  10 h15
M  ZZC  11 h16
M  ZZC  12 h17
M  ZZC  13 c5
M  ZZC  14 o2
M  ZZC  15 n2
M  ZZC  16 c4
M  ZZC  17 o1
M  ZZC  18 c6
M  ZZC  19 h12
M  ZZC  20 h13
M  ZZC  21 h14
M  ZZC  22 c8
M  ZZC  23 h10
M  ZZC  24 h11
M  ZZC  25 o4
M  ZZC  26 c9
M  ZZC  27 o5
M  ZZC  28 c10
M  ZZC  29 c11
M  ZZC  30 h9
M  ZZC  31 c12
M  ZZC  32 c13
M  ZZC  33 h8
M  ZZC  34 c14
M  ZZC  35 h7
M  ZZC  36 c15
M  ZZC  37 h6
M  ZZC  38 c16
M  ZZC  39 h5
M  ZZC  40 c17
M  ZZC  41 c18
M  ZZC  42 h4
M  ZZC  43 c19
M  ZZC  44 o6
M  ZZC  45 h3
M  ZZM   1 7
M  ZZI   1 80
M  ZZM   2 3
M  ZZI   2 122
M  ZZM   3 2
M  ZZI   3 120
M  ZZM   4 2
M  ZZI   4 120
M  ZZM   5 40
M  ZZI   5 224
M  ZZM   6 28
M  ZZI   6 11
M  ZZM   7 28
M  ZZI   7 11
M  ZZM   8 10
M  ZZI   8 192
M  ZZM   9 1
M  ZZI   9 111
M  ZZM  10 5
M  ZZI  10 1
M  ZZM  11 5
M  ZZI  11 1
M  ZZM  12 5
M  ZZI  12 1
M  ZZM  13 3
M  ZZI  13 121
M  ZZM  14 7
M  ZZI  14 81
M  ZZM  15 10
M  ZZI  15 192
M  ZZM  16 3
M  ZZI  16 121
M  ZZM  17 7
M  ZZI  17 81
M  ZZM  18 1
M  ZZI  18 111
M  ZZM  19 5
M  ZZI  19 1
M  ZZM  20 5
M  ZZI  20 1
M  ZZM  21 5
M  ZZI  21 1
M  ZZM  22 1
M  ZZI  22 112
M  ZZM  23 5
M  ZZI  23 1
M  ZZM  24 5
M  ZZI  24 1
M  ZZM  25 6
M  ZZI  25 61
M  ZZM  26 3
M  ZZI  26 123
M  ZZM  27 7
M  ZZI  27 82
M  ZZM  28 37
M  ZZI  28 124
M  ZZM  29 37
M  ZZI  29 125
M  ZZM  30 5
M  ZZI  30 1
M  ZZM  31 37
M  ZZI  31 124
M  ZZM  32 37
M  ZZI  32 125
M  ZZM  33 5
M  ZZI  33 1
M  ZZM  34 37
M  ZZI  34 125
M  ZZM  35 5
M  ZZI  35 1
M  ZZM  36 37
M  ZZI  36 125
M  ZZM  37 5
M  ZZI  37 1
M  ZZM  38 37
M  ZZI  38 125
M  ZZM  39 5
M  ZZI  39 1
M  ZZM  40 37
M  ZZI  40 124
M  ZZM  41 37
M  ZZI  41 125
M  ZZM  42 5
M  ZZI  42 1
M  ZZM  43 37
M  ZZI  43 124
M  ZZM  44 6
M  ZZI  44 62
M  ZZM  45 29
M  ZZI  45 27
M  END
> <NAME>
Z19713831

> <Score>
-25.459618

> <Natom>
45

> <Nflex>
2

> <Hbond>
-5.29056

> <Hphob>
-5.826743

> <VwInt>
-28.795249

> <Eintl>
6.891784

> <Dsolv>
16.45056

> <SolEl>
10.737495

> <mfScore>
-74.327395

> <RecConf>
1

> <molLogP>
1.325719

$$$$
Z28931219
  MOLSOFT 11211612053D

 45 48  0  0  1  0  0  0  0  0999 V2000
  -33.5929    1.2229   68.1424 H   0  0  0
  -34.1329    2.0330   68.6223 C   0  0  0
  -34.7114    3.0571   67.8982 C   0  0  0
  -35.4070    4.1049   68.4810 C   0  0  0
  -35.5309    4.1279   69.8653 C   0  0  0
  -36.0702    4.9232   70.3691 H   0  0  0
  -34.9635    3.1074   70.6012 C   0  0  0
  -35.0626    3.1133   71.6820 H   0  0  0
  -34.2782    2.0787   69.9920 C   0  0  0
  -33.8467    1.2900   70.5999 H   0  0  0
  -35.8655    4.9558   67.4290 C   0  0  0
  -35.4350    4.3897   66.2495 C   0  0  0
  -35.5686    4.7047   65.2252 H   0  0  0
  -34.7379    3.2563   66.5454 N   0  0  0
  -34.3104    2.6435   65.8629 H   0  0  0
  -36.6714    6.2000   67.5614 C   0  0  0
  -37.7079    6.0298   67.2586 H   0  0  0
  -36.7060    6.5323   68.6033 H   0  0  0
  -36.1221    7.3150   66.7029 C   0  0  0
  -36.3714    7.4035   65.5079 O   0  0  0
  -35.3070    8.1740   67.4098 N   0  0  0
  -35.1148    8.0007   68.3928 H   0  0  0
  -34.6831    9.3549   66.8463 C   0  0  1
  -35.4585    9.8800   66.2764 H   0  0  0
  -34.2356   10.2582   67.9760 C   0  0  0
  -33.8137   11.5592   67.7332 C   0  0  0
  -33.8337   11.9744   66.7325 H   0  0  0
  -33.3420   12.3260   68.7781 C   0  0  0
  -32.9880   13.3355   68.6096 H   0  0  0
  -33.3143   11.7803   70.0415 C   0  0  0
  -32.9489   12.3523   70.8875 H   0  0  0
  -33.7657   10.4894   70.2034 C   0  0  0
  -33.7636   10.0263   71.1852 H   0  0  0
  -34.2241    9.7159   69.2119 N   0  0  0
  -33.5511    8.9771   65.9111 C   0  0  0
  -32.2682    8.7673   66.4063 C   0  0  0
  -32.0674    8.8659   67.4690 H   0  0  0
  -31.2232    8.4541   65.5620 C   0  0  0
  -30.2215    8.3231   65.9574 H   0  0  0
  -31.4449    8.3117   64.2116 C   0  0  0
  -30.6240    8.0535   63.5494 H   0  0  0
  -32.7091    8.5160   63.7031 C   0  0  0
  -32.8847    8.4156   62.6370 H   0  0  0
  -33.7490    8.8633   64.5386 C   0  0  0
  -34.7255    9.0420   64.0984 H   0  0  0
  2  1  1
  2  3  1
  2  9  2
  3  4  2
  3 14  1
  4  5  1
  4 11  1
  5  6  1
  5  7  2
  7  8  1
  7  9  1
  9 10  1
 11 12  2
 11 16  1
 12 13  1
 12 14  1
 14 15  1
 16 17  1
 16 18  1
 16 19  1
 19 20  2
 19 21  1
 21 22  1
 23 21  1
 23 24  1
 23 25  1
 23 35  1
 25 26  1
 25 34  2
 26 27  1
 26 28  2
 28 29  1
 28 30  1
 30 31  1
 30 32  2
 32 33  1
 32 34  1
 35 36  2
 35 44  1
 36 37  1
 36 38  1
 38 39  1
 38 40  2
 40 41  1
 40 42  1
 42 43  1
 42 44  2
 44 45  1
M  ZZC   1 h1
M  ZZC   2 c22
M  ZZC   3 c17
M  ZZC   4 c18
M  ZZC   5 c19
M  ZZC   6 h4
M  ZZC   7 c20
M  ZZC   8 h3
M  ZZC   9 c21
M  ZZC  10 h2
M  ZZC  11 c15
M  ZZC  12 c16
M  ZZC  13 h5
M  ZZC  14 n3
M  ZZC  15 h18
M  ZZC  16 c14
M  ZZC  17 h6
M  ZZC  18 h7
M  ZZC  19 c13
M  ZZC  20 o1
M  ZZC  21 n2
M  ZZC  22 h8
M  ZZC  23 c7
M  ZZC  24 h19
M  ZZC  25 c8
M  ZZC  26 c9
M  ZZC  27 h12
M  ZZC  28 c10
M  ZZC  29 h11
M  ZZC  30 c11
M  ZZC  31 h10
M  ZZC  32 c12
M  ZZC  33 h9
M  ZZC  34 n1
M  ZZC  35 c4
M  ZZC  36 c3
M  ZZC  37 h15
M  ZZC  38 c2
M  ZZC  39 h16
M  ZZC  40 c1
M  ZZC  41 h17
M  ZZC  42 c6
M  ZZC  43 h13
M  ZZC  44 c5
M  ZZC  45 h14
M  ZZM   1 5
M  ZZI   1 1
M  ZZM   2 37
M  ZZI   2 125
M  ZZM   3 63
M  ZZI   3 104
M  ZZM   4 64
M  ZZI   4 105
M  ZZM   5 37
M  ZZI   5 125
M  ZZM   6 5
M  ZZI   6 1
M  ZZM   7 37
M  ZZI   7 125
M  ZZM   8 5
M  ZZI   8 1
M  ZZM   9 37
M  ZZI   9 125
M  ZZM  10 5
M  ZZI  10 1
M  ZZM  11 64
M  ZZI  11 105
M  ZZM  12 63
M  ZZI  12 104
M  ZZM  13 5
M  ZZI  13 1
M  ZZM  14 39
M  ZZI  14 215
M  ZZM  15 23
M  ZZI  15 10
M  ZZM  16 1
M  ZZI  16 112
M  ZZM  17 5
M  ZZI  17 1
M  ZZM  18 5
M  ZZI  18 1
M  ZZM  19 3
M  ZZI  19 121
M  ZZM  20 7
M  ZZI  20 81
M  ZZM  21 10
M  ZZI  21 211
M  ZZM  22 28
M  ZZI  22 11
M  ZZM  23 1
M  ZZI  23 113
M  ZZM  24 5
M  ZZI  24 1
M  ZZM  25 37
M  ZZI  25 124
M  ZZM  26 37
M  ZZI  26 125
M  ZZM  27 5
M  ZZI  27 1
M  ZZM  28 37
M  ZZI  28 125
M  ZZM  29 5
M  ZZI  29 1
M  ZZM  30 37
M  ZZI  30 125
M  ZZM  31 5
M  ZZI  31 1
M  ZZM  32 37
M  ZZI  32 125
M  ZZM  33 5
M  ZZI  33 1
M  ZZM  34 38
M  ZZI  34 223
M  ZZM  35 37
M  ZZI  35 124
M  ZZM  36 37
M  ZZI  36 125
M  ZZM  37 5
M  ZZI  37 1
M  ZZM  38 37
M  ZZI  38 125
M  ZZM  39 5
M  ZZI  39 1
M  ZZM  40 37
M  ZZI  40 125
M  ZZM  41 5
M  ZZI  41 1
M  ZZM  42 37
M  ZZI  42 125
M  ZZM  43 5
M  ZZI  43 1
M  ZZM  44 37
M  ZZI  44 125
M  ZZM  45 5
M  ZZI  45 1
M  END
> <NAME>
Z28931219

> <Score>
-25.396872

> <Natom>
45

> <Nflex>
5

> <Hbond>
-1.49727

> <Hphob>
-7.208416

> <VwInt>
-33.021906

> <Eintl>
6.715554

> <Dsolv>
9.912122

> <SolEl>
8.801022

> <mfScore>
-101.511159

> <RecConf>
1

> <molLogP>
3.572002

$$$$
Z220815498
  MOLSOFT 11211612053D

 45 47  0  0  1  0  0  0  0  0999 V2000
  -33.4606    7.8835   66.2876 H   0  0  0
  -33.7203    8.4655   65.4792 N   0  3  0
  -34.1352    7.5149   64.3805 C   0  0  0
  -35.1705    7.6927   64.0810 H   0  0  0
  -34.0144    6.4987   64.7686 H   0  0  0
  -33.1829    7.7716   63.2438 C   0  0  0
  -33.5871    8.5574   62.6083 H   0  0  0
  -33.0373    6.8879   62.6222 H   0  0  0
  -31.9264    8.2461   63.9177 C   0  0  0
  -31.2533    8.7690   63.2313 H   0  0  0
  -31.3821    7.4090   64.3559 H   0  0  0
  -32.4609    9.1455   65.0010 C   0  0  0
  -31.7711    9.2681   65.8428 H   0  0  0
  -32.7339   10.1158   64.5753 H   0  0  0
  -34.7926    9.4411   65.9717 C   0  0  2
  -35.0534   10.0617   65.1066 H   0  0  0
  -34.2747   10.3524   67.0479 C   0  0  0
  -34.3763   10.3937   68.4276 C   0  0  0
  -34.9138    9.7068   69.0640 H   0  0  0
  -33.6376   11.5204   68.8584 C   0  0  0
  -33.4880   11.8699   69.8701 H   0  0  0
  -33.1305   12.1030   67.7239 C   0  0  0
  -32.5079   12.9663   67.5436 H   0  0  0
  -33.5174   11.4084   66.6194 O   0  0  0
  -36.0805    8.7039   66.4230 C   0  0  0
  -36.7435    9.3891   66.9565 H   0  0  0
  -36.6458    8.3635   65.5514 H   0  0  0
  -35.8563    7.5617   67.3051 N   0  0  0
  -35.5938    7.7341   68.2677 H   0  0  0
  -36.0155    6.2603   66.8712 C   0  0  0
  -36.3602    5.9721   65.7333 O   0  0  0
  -35.6881    5.2634   67.8752 C   0  0  0
  -35.2730    3.9625   67.6441 C   0  0  0
  -35.0316    3.2279   66.3778 C   0  0  0
  -34.8004    2.1729   66.5381 H   0  0  0
  -34.1890    3.6684   65.8444 H   0  0  0
  -35.9099    3.2795   65.7330 H   0  0  0
  -35.0692    3.4059   68.8871 N   0  0  0
  -34.6190    2.0525   69.1895 C   0  0  0
  -35.3739    1.3490   68.8249 H   0  0  0
  -34.5044    1.9527   70.2730 H   0  0  0
  -33.6558    1.8882   68.6961 H   0  0  0
  -35.3194    4.2531   69.9056 N   0  0  0
  -35.6998    5.3739   69.2887 C   0  0  0
  -35.9761    6.2205   69.9026 H   0  0  0
  2  1  1
  2  3  1
 15  2  1
  2 12  1
  3  4  1
  3  5  1
  3  6  1
  6  7  1
  6  8  1
  6  9  1
  9 10  1
  9 11  1
  9 12  1
 12 13  1
 12 14  1
 15 16  1
 15 17  1
 15 25  1
 17 18  2
 17 24  1
 18 19  1
 18 20  1
 20 21  1
 20 22  2
 22 23  1
 22 24  1
 25 26  1
 25 27  1
 25 28  1
 28 29  1
 28 30  1
 30 31  2
 30 32  1
 32 33  2
 32 44  1
 33 34  1
 33 38  1
 34 35  1
 34 36  1
 34 37  1
 38 39  1
 38 43  1
 39 40  1
 39 41  1
 39 42  1
 43 44  2
 44 45  1
M  ZZC   1 h1
M  ZZC   2 n4
M  ZZC   3 c13
M  ZZC   4 h8
M  ZZC   5 h9
M  ZZC   6 c14
M  ZZC   7 h6
M  ZZC   8 h7
M  ZZC   9 c15
M  ZZC  10 h4
M  ZZC  11 h5
M  ZZC  12 c16
M  ZZC  13 h2
M  ZZC  14 h3
M  ZZC  15 c8
M  ZZC  16 h23
M  ZZC  17 c9
M  ZZC  18 c10
M  ZZC  19 h12
M  ZZC  20 c11
M  ZZC  21 h11
M  ZZC  22 c12
M  ZZC  23 h10
M  ZZC  24 o2
M  ZZC  25 c7
M  ZZC  26 h13
M  ZZC  27 h14
M  ZZC  28 n3
M  ZZC  29 h15
M  ZZC  30 c6
M  ZZC  31 o1
M  ZZC  32 c3
M  ZZC  33 c2
M  ZZC  34 c1
M  ZZC  35 h20
M  ZZC  36 h21
M  ZZC  37 h22
M  ZZC  38 n2
M  ZZC  39 c5
M  ZZC  40 h16
M  ZZC  41 h17
M  ZZC  42 h18
M  ZZC  43 n1
M  ZZC  44 c4
M  ZZC  45 h19
M  ZZM   1 36
M  ZZI   1 17
M  ZZM   2 34
M  ZZI   2 231
M  ZZM   3 1
M  ZZI   3 112
M  ZZM   4 5
M  ZZI   4 1
M  ZZM   5 5
M  ZZI   5 1
M  ZZM   6 1
M  ZZI   6 112
M  ZZM   7 5
M  ZZI   7 1
M  ZZM   8 5
M  ZZI   8 1
M  ZZM   9 1
M  ZZI   9 112
M  ZZM  10 5
M  ZZI  10 1
M  ZZM  11 5
M  ZZI  11 1
M  ZZM  12 1
M  ZZI  12 112
M  ZZM  13 5
M  ZZI  13 1
M  ZZM  14 5
M  ZZI  14 1
M  ZZM  15 1
M  ZZI  15 113
M  ZZM  16 5
M  ZZI  16 1
M  ZZM  17 63
M  ZZI  17 104
M  ZZM  18 64
M  ZZI  18 105
M  ZZM  19 5
M  ZZI  19 1
M  ZZM  20 64
M  ZZI  20 105
M  ZZM  21 5
M  ZZI  21 1
M  ZZM  22 63
M  ZZI  22 104
M  ZZM  23 5
M  ZZI  23 1
M  ZZM  24 59
M  ZZI  24 56
M  ZZM  25 1
M  ZZI  25 112
M  ZZM  26 5
M  ZZI  26 1
M  ZZM  27 5
M  ZZI  27 1
M  ZZM  28 10
M  ZZI  28 211
M  ZZM  29 28
M  ZZI  29 11
M  ZZM  30 3
M  ZZI  30 121
M  ZZM  31 7
M  ZZI  31 81
M  ZZM  32 64
M  ZZI  32 105
M  ZZM  33 63
M  ZZI  33 104
M  ZZM  34 1
M  ZZI  34 111
M  ZZM  35 5
M  ZZI  35 1
M  ZZM  36 5
M  ZZI  36 1
M  ZZM  37 5
M  ZZI  37 1
M  ZZM  38 39
M  ZZI  38 215
M  ZZM  39 1
M  ZZI  39 111
M  ZZM  40 5
M  ZZI  40 1
M  ZZM  41 5
M  ZZI  41 1
M  ZZM  42 5
M  ZZI  42 1
M  ZZM  43 65
M  ZZI  43 207
M  ZZM  44 64
M  ZZI  44 105
M  ZZM  45 5
M  ZZI  45 1
M  CHG  1   2   1
M  END
> <NAME>
Z220815498

> <Score>
-25.337249

> <Natom>
45

> <Nflex>
4

> <Hbond>
-2.955107

> <Hphob>
-7.354963

> <VwInt>
-28.649365

> <Eintl>
4.903785

> <Dsolv>
7.764465

> <SolEl>
11.353051

> <mfScore>
-75.571512

> <RecConf>
1

> <molLogP>
0.178428

$$$$
Z297039746
  MOLSOFT 11211612053D

 45 47  0  0  0  0  0  0  0  0999 V2000
  -30.7553    8.1873   70.9796 O   0  0  0
  -31.1868    9.3347   70.9642 C   0  0  0
  -31.7119    9.9354   69.7045 C   0  0  0
  -31.5308    9.2620   68.4532 C   0  0  0
  -31.0312    8.2994   68.4733 H   0  0  0
  -32.0095    9.7714   67.3098 C   0  0  0
  -32.7100   11.0783   67.3393 C   0  0  0
  -33.1249   11.5892   66.3108 O   0  0  0
  -32.8436   11.6551   68.5797 N   0  0  0
  -33.3302   12.5448   68.6134 H   0  0  0
  -32.3535   11.1126   69.7432 C   0  0  0
  -32.6036   11.8941   70.9973 C   0  0  0
  -33.6079   12.3303   70.9809 H   0  0  0
  -31.8932   12.7266   71.0449 H   0  0  0
  -32.4686   11.0258   72.2352 C   0  0  0
  -33.3328   10.3546   72.3049 H   0  0  0
  -32.4816   11.6550   73.1308 H   0  0  0
  -31.1900   10.2068   72.1914 C   0  0  0
  -31.1337    9.5643   73.0759 H   0  0  0
  -30.3008   10.8465   72.1736 H   0  0  0
  -31.8812    8.9247   66.0964 C   0  0  0
  -31.0370    8.0480   66.0199 O   0  0  0
  -32.8254    9.1874   65.1322 N   0  0  0
  -33.3951   10.0244   65.2122 H   0  0  0
  -33.0744    8.2800   64.0277 C   0  0  0
  -32.6509    7.2975   64.2587 H   0  0  0
  -32.5404    8.6946   63.1673 H   0  0  0
  -34.5711    8.1724   63.7151 C   0  0  0
  -35.0635    9.1484   63.7636 H   0  0  0
  -34.6615    7.8261   62.6831 H   0  0  0
  -35.2862    7.1948   64.5025 O   0  0  0
  -35.2833    7.4571   65.8706 C   0  0  0
  -35.6183    8.6908   66.4050 C   0  0  0
  -35.9437    9.5075   65.7703 H   0  0  0
  -35.5227    8.8858   67.7699 C   0  0  0
  -35.7527    9.8639   68.1819 H   0  0  0
  -35.1138    7.8525   68.6028 C   0  0  0
  -34.9499    8.0653   70.0783 C   0  0  0
  -34.0014    7.6373   70.4164 H   0  0  0
  -35.7665    7.5886   70.6277 H   0  0  0
  -34.9357    9.1318   70.3204 H   0  0  0
  -34.8816    6.5989   68.0592 C   0  0  0
  -34.6083    5.7665   68.6999 H   0  0  0
  -34.9661    6.4006   66.6972 C   0  0  0
  -34.7522    5.4242   66.2742 H   0  0  0
  2  1  2
  2  3  1
  2 18  1
  3  4  1
  3 11  2
  4  5  1
  4  6  2
  6  7  1
  6 21  1
  7  8  2
  7  9  1
  9 10  1
  9 11  1
 11 12  1
 12 13  1
 12 14  1
 12 15  1
 15 16  1
 15 17  1
 15 18  1
 18 19  1
 18 20  1
 21 22  2
 21 23  1
 23 24  1
 23 25  1
 25 26  1
 25 27  1
 25 28  1
 28 29  1
 28 30  1
 28 31  1
 31 32  1
 32 33  1
 32 44  2
 33 34  1
 33 35  2
 35 36  1
 35 37  1
 37 38  1
 37 42  2
 38 39  1
 38 40  1
 38 41  1
 42 43  1
 42 44  1
 44 45  1
M  ZZC   1 o4
M  ZZC   2 c19
M  ZZC   3 c13
M  ZZC   4 c12
M  ZZC   5 h7
M  ZZC   6 c11
M  ZZC   7 c15
M  ZZC   8 o3
M  ZZC   9 n2
M  ZZC  10 h20
M  ZZC  11 c14
M  ZZC  12 c16
M  ZZC  13 h5
M  ZZC  14 h6
M  ZZC  15 c17
M  ZZC  16 h3
M  ZZC  17 h4
M  ZZC  18 c18
M  ZZC  19 h1
M  ZZC  20 h2
M  ZZC  21 c10
M  ZZC  22 o2
M  ZZC  23 n1
M  ZZC  24 h8
M  ZZC  25 c9
M  ZZC  26 h10
M  ZZC  27 h9
M  ZZC  28 c8
M  ZZC  29 h11
M  ZZC  30 h12
M  ZZC  31 o1
M  ZZC  32 c5
M  ZZC  33 c4
M  ZZC  34 h15
M  ZZC  35 c3
M  ZZC  36 h16
M  ZZC  37 c2
M  ZZC  38 c1
M  ZZC  39 h17
M  ZZC  40 h18
M  ZZC  41 h19
M  ZZC  42 c7
M  ZZC  43 h13
M  ZZC  44 c6
M  ZZC  45 h14
M  ZZM   1 7
M  ZZI   1 80
M  ZZM   2 3
M  ZZI   2 122
M  ZZM   3 2
M  ZZI   3 120
M  ZZM   4 2
M  ZZI   4 120
M  ZZM   5 5
M  ZZI   5 1
M  ZZM   6 2
M  ZZI   6 120
M  ZZM   7 3
M  ZZI   7 121
M  ZZM   8 7
M  ZZI   8 81
M  ZZM   9 10
M  ZZI   9 191
M  ZZM  10 28
M  ZZI  10 11
M  ZZM  11 2
M  ZZI  11 120
M  ZZM  12 1
M  ZZI  12 112
M  ZZM  13 5
M  ZZI  13 1
M  ZZM  14 5
M  ZZI  14 1
M  ZZM  15 1
M  ZZI  15 112
M  ZZM  16 5
M  ZZI  16 1
M  ZZM  17 5
M  ZZI  17 1
M  ZZM  18 1
M  ZZI  18 112
M  ZZM  19 5
M  ZZI  19 1
M  ZZM  20 5
M  ZZI  20 1
M  ZZM  21 3
M  ZZI  21 121
M  ZZM  22 7
M  ZZI  22 81
M  ZZM  23 10
M  ZZI  23 211
M  ZZM  24 28
M  ZZI  24 11
M  ZZM  25 1
M  ZZI  25 112
M  ZZM  26 5
M  ZZI  26 1
M  ZZM  27 5
M  ZZI  27 1
M  ZZM  28 1
M  ZZI  28 112
M  ZZM  29 5
M  ZZI  29 1
M  ZZM  30 5
M  ZZI  30 1
M  ZZM  31 6
M  ZZI  31 59
M  ZZM  32 37
M  ZZI  32 124
M  ZZM  33 37
M  ZZI  33 125
M  ZZM  34 5
M  ZZI  34 1
M  ZZM  35 37
M  ZZI  35 125
M  ZZM  36 5
M  ZZI  36 1
M  ZZM  37 37
M  ZZI  37 124
M  ZZM  38 1
M  ZZI  38 111
M  ZZM  39 5
M  ZZI  39 1
M  ZZM  40 5
M  ZZI  40 1
M  ZZM  41 5
M  ZZI  41 1
M  ZZM  42 37
M  ZZI  42 125
M  ZZM  43 5
M  ZZI  43 1
M  ZZM  44 37
M  ZZI  44 125
M  ZZM  45 5
M  ZZI  45 1
M  END
> <NAME>
Z297039746

> <Score>
-25.298818

> <Natom>
45

> <Nflex>
3

> <Hbond>
-3.760627

> <Hphob>
-6.592418

> <VwInt>
-27.146369

> <Eintl>
5.616621

> <Dsolv>
12.364829

> <SolEl>
7.129143

> <mfScore>
-94.736903

> <RecConf>
1

> <molLogP>
1.468251

$$$$
Z62866585
  MOLSOFT 11211612053D

 45 48  0  0  0  0  0  0  0  0999 V2000
  -32.7586   13.0150   68.7141 H   0  0  0
  -33.0651   12.3010   69.4832 C   0  0  0
  -33.8268   12.8066   70.0819 H   0  0  0
  -31.9130   12.0299   70.3891 C   0  0  0
  -31.4512   12.8883   70.8635 H   0  0  0
  -31.3976   10.8216   70.6278 C   0  0  0
  -30.5319   10.7362   71.2758 H   0  0  0
  -31.9342    9.5718   70.0339 C   0  0  0
  -31.2515    9.2414   69.2432 H   0  0  0
  -31.9170    8.7815   70.7915 H   0  0  0
  -33.3649    9.7201   69.5141 C   0  0  2
  -34.0942    9.4958   70.3016 H   0  0  0
  -33.5280    8.7556   68.3781 C   0  0  0
  -33.6347    7.5465   68.5044 O   0  0  0
  -33.4631    9.4615   67.2058 N   0  0  0
  -33.3586   10.8131   67.4090 C   0  0  0
  -33.1218   11.6612   66.5610 O   0  0  0
  -33.6917   11.0563   68.8543 C   0  0  2
  -34.7801   11.1918   68.8499 H   0  0  0
  -33.4698    8.8472   65.8877 C   0  0  0
  -32.7396    9.3867   65.2755 H   0  0  0
  -33.1486    7.8035   65.9711 H   0  0  0
  -34.8431    8.9527   65.2274 C   0  0  0
  -34.7167    9.0074   64.1413 H   0  0  0
  -35.3831    9.8533   65.5379 H   0  0  0
  -35.7057    7.7436   65.5041 C   0  0  0
  -35.9739    6.9444   64.6225 O   0  0  0
  -36.1819    7.6378   66.7908 N   0  0  0
  -35.9384    8.3326   67.4858 H   0  0  0
  -37.0454    6.5408   67.1829 C   0  0  0
  -37.9541    6.9630   67.6150 H   0  0  0
  -37.3462    5.9638   66.3066 H   0  0  0
  -36.3660    5.6876   68.1893 C   0  0  0
  -35.5889    4.5986   67.8836 N   0  0  0
  -35.1978    4.0771   66.6719 C   0  0  0
  -35.5010    4.5836   65.7633 H   0  0  0
  -34.4572    2.9685   66.6495 C   0  0  0
  -34.1204    2.5311   65.7176 H   0  0  0
  -34.0996    2.3455   67.8949 C   0  0  0
  -33.5052    1.4391   67.8576 H   0  0  0
  -34.4766    2.8680   69.0696 C   0  0  0
  -34.2037    2.3972   70.0069 H   0  0  0
  -35.2494    4.0482   69.0852 C   0  0  0
  -35.7493    4.7689   70.0639 N   0  0  0
  -36.4552    5.8045   69.4983 N   0  0  0
  2  1  1
  2  3  1
  2  4  1
 18  2  1
  4  5  1
  4  6  2
  6  7  1
  6  8  1
  8  9  1
  8 10  1
 11  8  1
 11 12  1
 11 13  1
 11 18  1
 13 14  2
 13 15  1
 15 16  1
 15 20  1
 16 17  2
 18 16  1
 18 19  1
 20 21  1
 20 22  1
 20 23  1
 23 24  1
 23 25  1
 23 26  1
 26 27  2
 26 28  1
 28 29  1
 28 30  1
 30 31  1
 30 32  1
 30 33  1
 33 34  1
 33 45  2
 34 35  1
 34 43  1
 35 36  1
 35 37  2
 37 38  1
 37 39  1
 39 40  1
 39 41  2
 41 42  1
 41 43  1
 43 44  2
 44 45  1
M  ZZC   1 h1
M  ZZC   2 c16
M  ZZC   3 h2
M  ZZC   4 c15
M  ZZC   5 h3
M  ZZC   6 c14
M  ZZC   7 h4
M  ZZC   8 c13
M  ZZC   9 h5
M  ZZC  10 h6
M  ZZC  11 c12
M  ZZC  12 h19
M  ZZC  13 c11
M  ZZC  14 o2
M  ZZC  15 n5
M  ZZC  16 c18
M  ZZC  17 o3
M  ZZC  18 c17
M  ZZC  19 h18
M  ZZC  20 c10
M  ZZC  21 h7
M  ZZC  22 h8
M  ZZC  23 c9
M  ZZC  24 h10
M  ZZC  25 h9
M  ZZC  26 c8
M  ZZC  27 o1
M  ZZC  28 n4
M  ZZC  29 h11
M  ZZC  30 c7
M  ZZC  31 h12
M  ZZC  32 h13
M  ZZC  33 c6
M  ZZC  34 n1
M  ZZC  35 c3
M  ZZC  36 h15
M  ZZC  37 c2
M  ZZC  38 h16
M  ZZC  39 c1
M  ZZC  40 h17
M  ZZC  41 c5
M  ZZC  42 h14
M  ZZC  43 c4
M  ZZC  44 n2
M  ZZC  45 n3
M  ZZM   1 5
M  ZZI   1 1
M  ZZM   2 1
M  ZZI   2 112
M  ZZM   3 5
M  ZZI   3 1
M  ZZM   4 2
M  ZZI   4 120
M  ZZM   5 5
M  ZZI   5 1
M  ZZM   6 2
M  ZZI   6 120
M  ZZM   7 5
M  ZZI   7 1
M  ZZM   8 1
M  ZZI   8 112
M  ZZM   9 5
M  ZZI   9 1
M  ZZM  10 5
M  ZZI  10 1
M  ZZM  11 1
M  ZZI  11 113
M  ZZM  12 5
M  ZZI  12 1
M  ZZM  13 3
M  ZZI  13 121
M  ZZM  14 7
M  ZZI  14 81
M  ZZM  15 10
M  ZZI  15 192
M  ZZM  16 3
M  ZZI  16 121
M  ZZM  17 7
M  ZZI  17 81
M  ZZM  18 1
M  ZZI  18 113
M  ZZM  19 5
M  ZZI  19 1
M  ZZM  20 1
M  ZZI  20 112
M  ZZM  21 5
M  ZZI  21 1
M  ZZM  22 5
M  ZZI  22 1
M  ZZM  23 1
M  ZZI  23 112
M  ZZM  24 5
M  ZZI  24 1
M  ZZM  25 5
M  ZZI  25 1
M  ZZM  26 3
M  ZZI  26 121
M  ZZM  27 7
M  ZZI  27 81
M  ZZM  28 10
M  ZZI  28 211
M  ZZM  29 28
M  ZZI  29 11
M  ZZM  30 1
M  ZZI  30 112
M  ZZM  31 5
M  ZZI  31 1
M  ZZM  32 5
M  ZZI  32 1
M  ZZM  33 63
M  ZZI  33 104
M  ZZM  34 39
M  ZZI  34 215
M  ZZM  35 2
M  ZZI  35 120
M  ZZM  36 5
M  ZZI  36 1
M  ZZM  37 2
M  ZZI  37 120
M  ZZM  38 5
M  ZZI  38 1
M  ZZM  39 2
M  ZZI  39 120
M  ZZM  40 5
M  ZZI  40 1
M  ZZM  41 2
M  ZZI  41 120
M  ZZM  42 5
M  ZZI  42 1
M  ZZM  43 63
M  ZZI  43 104
M  ZZM  44 66
M  ZZI  44 222
M  ZZM  45 66
M  ZZI  45 222
M  END
> <NAME>
Z62866585

> <Score>
-25.256594

> <Natom>
45

> <Nflex>
5

> <Hbond>
-2.999483

> <Hphob>
-6.084172

> <VwInt>
-31.732867

> <Eintl>
5.658289

> <Dsolv>
13.883019

> <SolEl>
7.165295

> <mfScore>
-64.360134

> <RecConf>
1

> <molLogP>
0.230113

$$$$
Z79425186
  MOLSOFT 11211612053D

 45 46  0  0  0  0  0  0  0  0999 V2000
  -34.3383    3.2021   65.7148 H   0  0  0
  -35.0025    4.0118   66.0313 C   0  0  0
  -34.5152    4.9340   65.7072 H   0  0  0
  -35.9634    3.8671   65.5319 H   0  0  0
  -35.1746    3.9849   67.5174 C   0  0  0
  -34.9198    2.7583   68.1136 C   0  0  0
  -34.6470    1.9001   67.5065 H   0  0  0
  -34.9853    2.5931   69.4713 C   0  0  0
  -34.7782    1.6248   69.9162 H   0  0  0
  -35.3191    3.6627   70.2591 C   0  0  0
  -35.3752    3.5124   71.3333 H   0  0  0
  -35.6112    4.9036   69.7089 C   0  0  0
  -36.0387    5.9735   70.6871 C   0  0  0
  -35.7654    6.9744   70.3457 H   0  0  0
  -35.4896    5.8438   71.6254 H   0  0  0
  -37.5319    5.8884   70.9677 C   0  0  0
  -37.8459    6.6738   71.6604 H   0  0  0
  -37.7888    4.9189   71.4045 H   0  0  0
  -38.1178    6.0076   70.0512 H   0  0  0
  -35.5635    5.0838   68.3115 C   0  0  0
  -35.8731    6.3894   67.8074 N   0  0  0
  -35.9548    7.1120   68.5067 H   0  0  0
  -36.1907    6.7983   66.5162 C   0  0  0
  -36.4541    6.0957   65.5536 O   0  0  0
  -36.2074    8.3051   66.3648 C   0  0  0
  -37.2241    8.5898   66.0767 H   0  0  0
  -36.0075    8.7985   67.3208 H   0  0  0
  -35.2261    8.7725   65.2838 C   0  0  0
  -35.4234    8.2581   64.3391 H   0  0  0
  -35.3990    9.8385   65.1048 H   0  0  0
  -33.7581    8.5575   65.6453 C   0  0  0
  -33.5139    7.4911   65.6773 H   0  0  0
  -33.1131    9.0282   64.8960 H   0  0  0
  -33.4512    9.1104   66.9449 N   0  0  0
  -33.4365    8.4712   67.7287 H   0  0  0
  -33.2223   10.4569   67.1447 C   0  0  0
  -33.0879   11.2602   66.2315 O   0  0  0
  -33.1618   10.8426   68.5441 C   0  0  0
  -33.5230   10.0616   69.6916 C   0  0  0
  -33.9100    9.0528   69.6751 H   0  0  0
  -33.3370   10.7293   70.8802 C   0  0  0
  -33.5257   10.3686   71.8812 H   0  0  0
  -32.7371   12.3126   70.6382 S   0  0  0
  -32.7437   12.1009   68.9351 C   0  0  0
  -32.4175   12.9137   68.3029 H   0  0  0
  2  1  1
  2  3  1
  2  4  1
  2  5  1
  5  6  1
  5 20  2
  6  7  1
  6  8  2
  8  9  1
  8 10  1
 10 11  1
 10 12  2
 12 13  1
 12 20  1
 13 14  1
 13 15  1
 13 16  1
 16 17  1
 16 18  1
 16 19  1
 20 21  1
 21 22  1
 21 23  1
 23 24  2
 23 25  1
 25 26  1
 25 27  1
 25 28  1
 28 29  1
 28 30  1
 28 31  1
 31 32  1
 31 33  1
 31 34  1
 34 35  1
 34 36  1
 36 37  2
 36 38  1
 38 39  1
 38 44  2
 39 40  1
 39 41  2
 41 42  1
 41 43  1
 43 44  1
 44 45  1
M  ZZC   1 h1
M  ZZC   2 c18
M  ZZC   3 h2
M  ZZC   4 h3
M  ZZC   5 c7
M  ZZC   6 c6
M  ZZC   7 h15
M  ZZC   8 c5
M  ZZC   9 h16
M  ZZC  10 c4
M  ZZC  11 h17
M  ZZC  12 c3
M  ZZC  13 c2
M  ZZC  14 h18
M  ZZC  15 h19
M  ZZC  16 c1
M  ZZC  17 h20
M  ZZC  18 h21
M  ZZC  19 h22
M  ZZC  20 c8
M  ZZC  21 n1
M  ZZC  22 h14
M  ZZC  23 c9
M  ZZC  24 o1
M  ZZC  25 c10
M  ZZC  26 h12
M  ZZC  27 h13
M  ZZC  28 c11
M  ZZC  29 h10
M  ZZC  30 h11
M  ZZC  31 c12
M  ZZC  32 h8
M  ZZC  33 h9
M  ZZC  34 n2
M  ZZC  35 h7
M  ZZC  36 c13
M  ZZC  37 o2
M  ZZC  38 c14
M  ZZC  39 c15
M  ZZC  40 h6
M  ZZC  41 c16
M  ZZC  42 h5
M  ZZC  43 s1
M  ZZC  44 c17
M  ZZC  45 h4
M  ZZM   1 5
M  ZZI   1 1
M  ZZM   2 1
M  ZZI   2 111
M  ZZM   3 5
M  ZZI   3 1
M  ZZM   4 5
M  ZZI   4 1
M  ZZM   5 37
M  ZZI   5 124
M  ZZM   6 37
M  ZZI   6 125
M  ZZM   7 5
M  ZZI   7 1
M  ZZM   8 37
M  ZZI   8 125
M  ZZM   9 5
M  ZZI   9 1
M  ZZM  10 37
M  ZZI  10 125
M  ZZM  11 5
M  ZZI  11 1
M  ZZM  12 37
M  ZZI  12 124
M  ZZM  13 1
M  ZZI  13 112
M  ZZM  14 5
M  ZZI  14 1
M  ZZM  15 5
M  ZZI  15 1
M  ZZM  16 1
M  ZZI  16 111
M  ZZM  17 5
M  ZZI  17 1
M  ZZM  18 5
M  ZZI  18 1
M  ZZM  19 5
M  ZZI  19 1
M  ZZM  20 37
M  ZZI  20 124
M  ZZM  21 10
M  ZZI  21 191
M  ZZM  22 28
M  ZZI  22 11
M  ZZM  23 3
M  ZZI  23 121
M  ZZM  24 7
M  ZZI  24 81
M  ZZM  25 1
M  ZZI  25 112
M  ZZM  26 5
M  ZZI  26 1
M  ZZM  27 5
M  ZZI  27 1
M  ZZM  28 1
M  ZZI  28 112
M  ZZM  29 5
M  ZZI  29 1
M  ZZM  30 5
M  ZZI  30 1
M  ZZM  31 1
M  ZZI  31 112
M  ZZM  32 5
M  ZZI  32 1
M  ZZM  33 5
M  ZZI  33 1
M  ZZM  34 10
M  ZZI  34 211
M  ZZM  35 28
M  ZZI  35 11
M  ZZM  36 3
M  ZZI  36 121
M  ZZM  37 7
M  ZZI  37 81
M  ZZM  38 64
M  ZZI  38 105
M  ZZM  39 64
M  ZZI  39 105
M  ZZM  40 5
M  ZZI  40 1
M  ZZM  41 63
M  ZZI  41 104
M  ZZM  42 5
M  ZZI  42 1
M  ZZM  43 44
M  ZZI  43 248
M  ZZM  44 63
M  ZZI  44 104
M  ZZM  45 5
M  ZZI  45 1
M  END
> <NAME>
Z79425186

> <Score>
-25.250712

> <Natom>
45

> <Nflex>
5

> <Hbond>
-3.045835

> <Hphob>
-6.479985

> <VwInt>
-27.797389

> <Eintl>
8.506127

> <Dsolv>
10.146403

> <SolEl>
6.03701

> <mfScore>
-87.860919

> <RecConf>
1

> <molLogP>
3.431567

$$$$
Z16536263
  MOLSOFT 11211612053D

 45 47  0  0  0  0  0  0  0  0999 V2000
  -36.5476    5.8800   65.5990 O   0  0  0
  -36.4021    6.2685   66.7504 C   0  0  0
  -36.2158    5.3953   67.9379 C   0  0  0
  -36.8436    5.7560   69.1160 C   0  0  0
  -37.4996    6.6136   69.1566 H   0  0  0
  -36.6670    4.9809   70.2417 C   0  0  0
  -37.3556    5.3509   71.5191 C   0  0  0
  -37.0106    6.3281   71.8703 H   0  0  0
  -37.1471    4.6120   72.2985 H   0  0  0
  -38.4390    5.3872   71.3699 H   0  0  0
  -35.9044    3.8810   70.2475 N   0  0  0
  -35.3314    3.5035   69.0923 C   0  0  0
  -35.4603    4.2225   67.9027 C   0  0  0
  -34.8394    3.7561   66.7503 C   0  0  0
  -34.9113    4.2865   65.8072 H   0  0  0
  -34.1140    2.5892   66.7712 C   0  0  0
  -33.6388    2.2422   65.8633 H   0  0  0
  -33.9792    1.8774   67.9396 C   0  0  0
  -33.4005    0.9598   67.9579 H   0  0  0
  -34.5835    2.3396   69.0868 C   0  0  0
  -34.4786    1.7744   70.0070 H   0  0  0
  -36.3358    7.5677   67.1716 O   0  0  0
  -36.4361    8.5264   66.1086 C   0  0  0
  -37.1717    8.2204   65.3655 H   0  0  0
  -36.8004    9.4719   66.5185 H   0  0  0
  -35.0923    8.7249   65.4454 C   0  0  0
  -34.8289    8.1904   64.3750 O   0  0  0
  -34.1566    9.5496   66.1587 C   0  0  0
  -32.8358    9.8546   65.9084 C   0  0  0
  -32.2437    9.4902   65.0799 H   0  0  0
  -32.4244   10.7285   66.9412 C   0  0  0
  -31.4544   11.1773   67.0734 H   0  0  0
  -33.5123   10.9043   67.7677 C   0  0  0
  -34.5705   10.1871   67.2941 O   0  0  0
  -33.7619   11.6858   69.0031 C   0  0  0
  -34.3935   11.1080   69.6814 H   0  0  0
  -34.2603   12.6285   68.7632 H   0  0  0
  -32.5140   12.0065   69.6606 N   0  0  0
  -31.8403   12.5830   69.1691 H   0  0  0
  -32.2071   11.5306   70.9154 C   0  0  0
  -32.9359   10.8165   71.5871 O   0  0  0
  -30.8562   11.9830   71.3984 C   0  0  0
  -30.0776   11.6219   70.7199 H   0  0  0
  -30.6676   11.5837   72.3989 H   0  0  0
  -30.8251   13.0756   71.4400 H   0  0  0
  2  1  2
  2  3  1
  2 22  1
  3  4  1
  3 13  2
  4  5  1
  4  6  2
  6  7  1
  6 11  1
  7  8  1
  7  9  1
  7 10  1
 11 12  2
 12 13  1
 12 20  1
 13 14  1
 14 15  1
 14 16  2
 16 17  1
 16 18  1
 18 19  1
 18 20  2
 20 21  1
 22 23  1
 23 24  1
 23 25  1
 23 26  1
 26 27  2
 26 28  1
 28 29  2
 28 34  1
 29 30  1
 29 31  1
 31 32  1
 31 33  2
 33 34  1
 33 35  1
 35 36  1
 35 37  1
 35 38  1
 38 39  1
 38 40  1
 40 41  2
 40 42  1
 42 43  1
 42 44  1
 42 45  1
M  ZZC   1 o1
M  ZZC   2 c11
M  ZZC   3 c4
M  ZZC   4 c3
M  ZZC   5 h15
M  ZZC   6 c2
M  ZZC   7 c1
M  ZZC   8 h16
M  ZZC   9 h17
M  ZZC  10 h18
M  ZZC  11 n1
M  ZZC  12 c10
M  ZZC  13 c5
M  ZZC  14 c6
M  ZZC  15 h14
M  ZZC  16 c7
M  ZZC  17 h13
M  ZZC  18 c8
M  ZZC  19 h12
M  ZZC  20 c9
M  ZZC  21 h11
M  ZZC  22 o2
M  ZZC  23 c12
M  ZZC  24 h10
M  ZZC  25 h9
M  ZZC  26 c13
M  ZZC  27 o3
M  ZZC  28 c14
M  ZZC  29 c15
M  ZZC  30 h8
M  ZZC  31 c16
M  ZZC  32 h7
M  ZZC  33 c17
M  ZZC  34 o4
M  ZZC  35 c18
M  ZZC  36 h5
M  ZZC  37 h6
M  ZZC  38 n2
M  ZZC  39 h4
M  ZZC  40 c19
M  ZZC  41 o5
M  ZZC  42 c20
M  ZZC  43 h1
M  ZZC  44 h2
M  ZZC  45 h3
M  ZZM   1 7
M  ZZI   1 82
M  ZZM   2 3
M  ZZI   2 123
M  ZZM   3 37
M  ZZI   3 124
M  ZZM   4 37
M  ZZI   4 125
M  ZZM   5 5
M  ZZI   5 1
M  ZZM   6 37
M  ZZI   6 124
M  ZZM   7 1
M  ZZI   7 111
M  ZZM   8 5
M  ZZI   8 1
M  ZZM   9 5
M  ZZI   9 1
M  ZZM  10 5
M  ZZI  10 1
M  ZZM  11 38
M  ZZI  11 223
M  ZZM  12 37
M  ZZI  12 124
M  ZZM  13 37
M  ZZI  13 124
M  ZZM  14 37
M  ZZI  14 125
M  ZZM  15 5
M  ZZI  15 1
M  ZZM  16 37
M  ZZI  16 125
M  ZZM  17 5
M  ZZI  17 1
M  ZZM  18 37
M  ZZI  18 125
M  ZZM  19 5
M  ZZI  19 1
M  ZZM  20 37
M  ZZI  20 125
M  ZZM  21 5
M  ZZI  21 1
M  ZZM  22 6
M  ZZI  22 65
M  ZZM  23 1
M  ZZI  23 112
M  ZZM  24 5
M  ZZI  24 1
M  ZZM  25 5
M  ZZI  25 1
M  ZZM  26 3
M  ZZI  26 122
M  ZZM  27 7
M  ZZI  27 80
M  ZZM  28 63
M  ZZI  28 104
M  ZZM  29 64
M  ZZI  29 105
M  ZZM  30 5
M  ZZI  30 1
M  ZZM  31 64
M  ZZI  31 105
M  ZZM  32 5
M  ZZI  32 1
M  ZZM  33 63
M  ZZI  33 104
M  ZZM  34 59
M  ZZI  34 56
M  ZZM  35 1
M  ZZI  35 112
M  ZZM  36 5
M  ZZI  36 1
M  ZZM  37 5
M  ZZI  37 1
M  ZZM  38 10
M  ZZI  38 211
M  ZZM  39 28
M  ZZI  39 11
M  ZZM  40 3
M  ZZI  40 121
M  ZZM  41 7
M  ZZI  41 81
M  ZZM  42 1
M  ZZI  42 111
M  ZZM  43 5
M  ZZI  43 1
M  ZZM  44 5
M  ZZI  44 1
M  ZZM  45 5
M  ZZI  45 1
M  END
> <NAME>
Z16536263

> <Score>
-25.249778

> <Natom>
45

> <Nflex>
4

> <Hbond>
-2.30129

> <Hphob>
-6.29495

> <VwInt>
-27.987724

> <Eintl>
6.865065

> <Dsolv>
12.010052

> <SolEl>
2.076193

> <mfScore>
-78.439375

> <RecConf>
1

> <molLogP>
2.347974

$$$$
Z297568202
  MOLSOFT 11211612053D

 45 47  0  0  0  0  0  0  0  0999 V2000
  -30.8812    8.1784   70.9605 O   0  0  0
  -31.4147    9.2821   70.9548 C   0  0  0
  -31.8677    9.8971   69.6716 C   0  0  0
  -31.5901    9.2513   68.4235 C   0  0  0
  -31.0148    8.3322   68.4562 H   0  0  0
  -32.0387    9.7473   67.2616 C   0  0  0
  -32.8296   11.0032   67.2716 C   0  0  0
  -33.2130   11.5125   66.2302 O   0  0  0
  -33.0706   11.5461   68.5108 N   0  0  0
  -33.6216   12.3987   68.5308 H   0  0  0
  -32.5959   11.0215   69.6888 C   0  0  0
  -32.8950   11.7909   70.9353 C   0  0  0
  -33.8846   11.5122   71.3088 H   0  0  0
  -32.9182   12.8634   70.7232 H   0  0  0
  -31.8368   11.5220   71.9878 C   0  0  0
  -32.1029   12.0296   72.9204 H   0  0  0
  -30.8783   11.9417   71.6591 H   0  0  0
  -31.6844   10.0308   72.2346 C   0  0  0
  -32.5931    9.6181   72.6861 H   0  0  0
  -30.8489    9.8602   72.9213 H   0  0  0
  -31.7454    8.9468   66.0444 C   0  0  0
  -30.8901    8.0773   66.0550 O   0  0  0
  -32.5382    9.2457   64.9598 N   0  0  0
  -33.1389   10.0634   64.9853 H   0  0  0
  -32.5793    8.3959   63.7859 C   0  0  0
  -31.8762    7.5687   63.9137 H   0  0  0
  -32.2399    9.0099   62.9476 H   0  0  0
  -33.9898    7.8643   63.5135 C   0  0  0
  -34.7537    8.6444   63.5429 H   0  0  0
  -34.0006    7.4737   62.4944 H   0  0  0
  -34.3346    6.7401   64.3432 O   0  0  0
  -34.8392    7.0160   65.6193 C   0  0  0
  -35.2550    8.2621   66.0737 C   0  0  0
  -35.2798    9.1360   65.4354 H   0  0  0
  -35.6257    8.4126   67.3942 C   0  0  0
  -35.9113    9.3917   67.7663 H   0  0  0
  -35.6169    7.3287   68.2489 C   0  0  0
  -35.8781    7.4675   69.2924 H   0  0  0
  -35.2858    6.0676   67.7851 C   0  0  0
  -35.3406    4.8835   68.7038 C   0  0  0
  -36.3764    4.6741   68.9869 H   0  0  0
  -34.9315    3.9893   68.2234 H   0  0  0
  -34.7561    5.0743   69.6088 H   0  0  0
  -34.9096    5.9232   66.4604 C   0  0  0
  -34.6370    4.9445   66.0780 H   0  0  0
  2  1  2
  2  3  1
  2 18  1
  3  4  1
  3 11  2
  4  5  1
  4  6  2
  6  7  1
  6 21  1
  7  8  2
  7  9  1
  9 10  1
  9 11  1
 11 12  1
 12 13  1
 12 14  1
 12 15  1
 15 16  1
 15 17  1
 15 18  1
 18 19  1
 18 20  1
 21 22  2
 21 23  1
 23 24  1
 23 25  1
 25 26  1
 25 27  1
 25 28  1
 28 29  1
 28 30  1
 28 31  1
 31 32  1
 32 33  2
 32 44  1
 33 34  1
 33 35  1
 35 36  1
 35 37  2
 37 38  1
 37 39  1
 39 40  1
 39 44  2
 40 41  1
 40 42  1
 40 43  1
 44 45  1
M  ZZC   1 o4
M  ZZC   2 c19
M  ZZC   3 c13
M  ZZC   4 c12
M  ZZC   5 h7
M  ZZC   6 c11
M  ZZC   7 c15
M  ZZC   8 o3
M  ZZC   9 n2
M  ZZC  10 h20
M  ZZC  11 c14
M  ZZC  12 c16
M  ZZC  13 h5
M  ZZC  14 h6
M  ZZC  15 c17
M  ZZC  16 h3
M  ZZC  17 h4
M  ZZC  18 c18
M  ZZC  19 h1
M  ZZC  20 h2
M  ZZC  21 c10
M  ZZC  22 o2
M  ZZC  23 n1
M  ZZC  24 h8
M  ZZC  25 c9
M  ZZC  26 h10
M  ZZC  27 h9
M  ZZC  28 c8
M  ZZC  29 h11
M  ZZC  30 h12
M  ZZC  31 o1
M  ZZC  32 c6
M  ZZC  33 c5
M  ZZC  34 h14
M  ZZC  35 c4
M  ZZC  36 h15
M  ZZC  37 c3
M  ZZC  38 h16
M  ZZC  39 c2
M  ZZC  40 c1
M  ZZC  41 h17
M  ZZC  42 h18
M  ZZC  43 h19
M  ZZC  44 c7
M  ZZC  45 h13
M  ZZM   1 7
M  ZZI   1 80
M  ZZM   2 3
M  ZZI   2 122
M  ZZM   3 2
M  ZZI   3 120
M  ZZM   4 2
M  ZZI   4 120
M  ZZM   5 5
M  ZZI   5 1
M  ZZM   6 2
M  ZZI   6 120
M  ZZM   7 3
M  ZZI   7 121
M  ZZM   8 7
M  ZZI   8 81
M  ZZM   9 10
M  ZZI   9 191
M  ZZM  10 28
M  ZZI  10 11
M  ZZM  11 2
M  ZZI  11 120
M  ZZM  12 1
M  ZZI  12 112
M  ZZM  13 5
M  ZZI  13 1
M  ZZM  14 5
M  ZZI  14 1
M  ZZM  15 1
M  ZZI  15 112
M  ZZM  16 5
M  ZZI  16 1
M  ZZM  17 5
M  ZZI  17 1
M  ZZM  18 1
M  ZZI  18 112
M  ZZM  19 5
M  ZZI  19 1
M  ZZM  20 5
M  ZZI  20 1
M  ZZM  21 3
M  ZZI  21 121
M  ZZM  22 7
M  ZZI  22 81
M  ZZM  23 10
M  ZZI  23 211
M  ZZM  24 28
M  ZZI  24 11
M  ZZM  25 1
M  ZZI  25 112
M  ZZM  26 5
M  ZZI  26 1
M  ZZM  27 5
M  ZZI  27 1
M  ZZM  28 1
M  ZZI  28 112
M  ZZM  29 5
M  ZZI  29 1
M  ZZM  30 5
M  ZZI  30 1
M  ZZM  31 6
M  ZZI  31 59
M  ZZM  32 37
M  ZZI  32 124
M  ZZM  33 37
M  ZZI  33 125
M  ZZM  34 5
M  ZZI  34 1
M  ZZM  35 37
M  ZZI  35 125
M  ZZM  36 5
M  ZZI  36 1
M  ZZM  37 37
M  ZZI  37 125
M  ZZM  38 5
M  ZZI  38 1
M  ZZM  39 37
M  ZZI  39 124
M  ZZM  40 1
M  ZZI  40 111
M  ZZM  41 5
M  ZZI  41 1
M  ZZM  42 5
M  ZZI  42 1
M  ZZM  43 5
M  ZZI  43 1
M  ZZM  44 37
M  ZZI  44 125
M  ZZM  45 5
M  ZZI  45 1
M  END
> <NAME>
Z297568202

> <Score>
-25.227337

> <Natom>
45

> <Nflex>
3

> <Hbond>
-3.824204

> <Hphob>
-6.772849

> <VwInt>
-26.743932

> <Eintl>
5.442293

> <Dsolv>
12.135845

> <SolEl>
7.314785

> <mfScore>
-105.829751

> <RecConf>
1

> <molLogP>
1.468251

$$$$
Z647208958
  MOLSOFT 11211612053D

 46 48  0  0  1  0  0  0  0  0999 V2000
  -29.8888    9.1640   72.4468 H   0  0  0
  -30.1707   10.1996   72.3138 C   0  0  0
  -31.0182   10.7725   71.3357 C   0  0  0
  -31.0353   12.1115   71.6301 C   0  0  0
  -31.5376   12.9499   71.1718 H   0  0  0
  -30.2257   12.2676   72.7193 N   0  0  0
  -29.9992   13.1237   73.2119 H   0  0  0
  -29.6929   11.1128   73.1670 N   0  0  0
  -31.7284   10.2046   70.2908 N   0  0  0
  -32.3094   10.8323   69.7472 H   0  0  0
  -31.6699    8.8642   69.9601 C   0  0  0
  -30.9607    8.0303   70.5043 O   0  0  0
  -32.6086    8.4939   68.8381 C   0  0  0
  -32.6419    7.4037   68.7904 H   0  0  0
  -33.6145    8.8251   69.1193 H   0  0  0
  -32.1427    9.0910   67.4998 C   0  0  2
  -31.0622    8.9210   67.4282 H   0  0  0
  -32.3004   10.5389   67.4945 N   0  0  0
  -31.4715   11.1171   67.5543 H   0  0  0
  -33.5089   11.1684   67.5613 C   0  0  0
  -34.6025   10.6359   67.5075 O   0  0  0
  -33.3680   12.4922   67.7677 N   0  0  0
  -34.2088   13.0438   67.8948 H   0  0  0
  -32.4601   12.9279   67.8757 H   0  0  0
  -32.7721    8.4391   66.2808 C   0  0  0
  -32.1395    8.4981   65.0447 C   0  0  0
  -31.1782    8.9898   64.9503 H   0  0  0
  -32.7086    7.9364   63.9176 C   0  0  0
  -32.1984    8.0047   62.9613 H   0  0  0
  -33.9144    7.2737   64.0016 C   0  0  0
  -34.3502    6.8258   63.1162 H   0  0  0
  -34.5382    7.1672   65.2267 C   0  0  0
  -33.9892    7.7717   66.3471 C   0  0  0
  -34.5242    7.7345   67.2879 H   0  0  0
  -35.7352    6.4502   65.3041 O   0  0  0
  -35.8799    5.7771   66.5137 C   0  0  0
  -35.1221    4.6476   66.7753 C   0  0  0
  -34.4491    4.2454   66.0264 H   0  0  0
  -35.2102    4.0452   68.0139 C   0  0  0
  -34.6080    3.1695   68.2355 H   0  0  0
  -36.0595    4.5639   68.9724 C   0  0  0
  -36.1159    4.0978   69.9510 H   0  0  0
  -36.8610    5.6524   68.6832 C   0  0  0
  -37.5512    6.0316   69.4303 H   0  0  0
  -36.7874    6.2525   67.4411 C   0  0  0
  -37.4091    7.1086   67.2027 H   0  0  0
  2  1  1
  2  3  1
  2  8  2
  3  4  2
  3  9  1
  4  5  1
  4  6  1
  6  7  1
  6  8  1
  9 10  1
  9 11  1
 11 12  2
 11 13  1
 13 14  1
 13 15  1
 16 13  1
 16 17  1
 16 18  1
 16 25  1
 18 19  1
 18 20  1
 20 21  2
 20 22  1
 22 23  1
 22 24  1
 25 26  1
 25 33  2
 26 27  1
 26 28  2
 28 29  1
 28 30  1
 30 31  1
 30 32  2
 32 33  1
 32 35  1
 33 34  1
 35 36  1
 36 37  1
 36 45  2
 37 38  1
 37 39  2
 39 40  1
 39 41  1
 41 42  1
 41 43  2
 43 44  1
 43 45  1
 45 46  1
M  ZZC   1 h4
M  ZZC   2 c18
M  ZZC   3 c16
M  ZZC   4 c17
M  ZZC   5 h5
M  ZZC   6 n2
M  ZZC   7 h18
M  ZZC   8 n3
M  ZZC   9 n1
M  ZZC  10 h6
M  ZZC  11 c15
M  ZZC  12 o2
M  ZZC  13 c14
M  ZZC  14 h7
M  ZZC  15 h8
M  ZZC  16 c13
M  ZZC  17 h19
M  ZZC  18 n4
M  ZZC  19 h3
M  ZZC  20 c19
M  ZZC  21 o3
M  ZZC  22 n5
M  ZZC  23 h1
M  ZZC  24 h2
M  ZZC  25 c11
M  ZZC  26 c10
M  ZZC  27 h10
M  ZZC  28 c9
M  ZZC  29 h11
M  ZZC  30 c8
M  ZZC  31 h12
M  ZZC  32 c7
M  ZZC  33 c12
M  ZZC  34 h9
M  ZZC  35 o1
M  ZZC  36 c4
M  ZZC  37 c3
M  ZZC  38 h15
M  ZZC  39 c2
M  ZZC  40 h16
M  ZZC  41 c1
M  ZZC  42 h17
M  ZZC  43 c6
M  ZZC  44 h13
M  ZZC  45 c5
M  ZZC  46 h14
M  ZZM   1 5
M  ZZI   1 1
M  ZZM   2 64
M  ZZI   2 105
M  ZZM   3 64
M  ZZI   3 105
M  ZZM   4 63
M  ZZI   4 104
M  ZZM   5 5
M  ZZI   5 1
M  ZZM   6 39
M  ZZI   6 215
M  ZZM   7 23
M  ZZI   7 10
M  ZZM   8 65
M  ZZI   8 207
M  ZZM   9 10
M  ZZI   9 191
M  ZZM  10 28
M  ZZI  10 11
M  ZZM  11 3
M  ZZI  11 121
M  ZZM  12 7
M  ZZI  12 81
M  ZZM  13 1
M  ZZI  13 112
M  ZZM  14 5
M  ZZI  14 1
M  ZZM  15 5
M  ZZI  15 1
M  ZZM  16 1
M  ZZI  16 113
M  ZZM  17 5
M  ZZI  17 1
M  ZZM  18 10
M  ZZI  18 211
M  ZZM  19 28
M  ZZI  19 11
M  ZZM  20 3
M  ZZI  20 121
M  ZZM  21 7
M  ZZI  21 81
M  ZZM  22 10
M  ZZI  22 212
M  ZZM  23 28
M  ZZI  23 11
M  ZZM  24 28
M  ZZI  24 11
M  ZZM  25 37
M  ZZI  25 124
M  ZZM  26 37
M  ZZI  26 125
M  ZZM  27 5
M  ZZI  27 1
M  ZZM  28 37
M  ZZI  28 125
M  ZZM  29 5
M  ZZI  29 1
M  ZZM  30 37
M  ZZI  30 125
M  ZZM  31 5
M  ZZI  31 1
M  ZZM  32 37
M  ZZI  32 124
M  ZZM  33 37
M  ZZI  33 125
M  ZZM  34 5
M  ZZI  34 1
M  ZZM  35 6
M  ZZI  35 59
M  ZZM  36 37
M  ZZI  36 124
M  ZZM  37 37
M  ZZI  37 125
M  ZZM  38 5
M  ZZI  38 1
M  ZZM  39 37
M  ZZI  39 125
M  ZZM  40 5
M  ZZI  40 1
M  ZZM  41 37
M  ZZI  41 125
M  ZZM  42 5
M  ZZI  42 1
M  ZZM  43 37
M  ZZI  43 125
M  ZZM  44 5
M  ZZI  44 1
M  ZZM  45 37
M  ZZI  45 125
M  ZZM  46 5
M  ZZI  46 1
M  END
> <NAME>
Z647208958

> <Score>
-30.904427

> <Natom>
46

> <Nflex>
6

> <Hbond>
-6.439855

> <Hphob>
-5.849528

> <VwInt>
-30.234547

> <Eintl>
9.778462

> <Dsolv>
16.535939

> <SolEl>
5.363913

> <mfScore>
-112.705914

> <RecConf>
1

> <molLogP>
1.733349

$$$$
Z647208958
  MOLSOFT 11211612053D

 46 48  0  0  1  0  0  0  0  0999 V2000
  -29.9637    8.8494   72.4329 H   0  0  0
  -30.0069    9.9191   72.2800 C   0  0  0
  -30.2989   10.6400   71.0980 C   0  0  0
  -30.2257   11.9580   71.4638 C   0  0  0
  -30.3801   12.8754   70.9187 H   0  0  0
  -29.8872   11.9628   72.7843 N   0  0  0
  -29.7362   12.7674   73.3794 H   0  0  0
  -29.7434   10.7298   73.3110 N   0  0  0
  -30.5928   10.2223   69.8130 N   0  0  0
  -30.7580   10.9539   69.1318 H   0  0  0
  -30.6966    8.9007   69.4349 C   0  0  0
  -30.5770    7.9375   70.1777 O   0  0  0
  -30.9929    8.7537   67.9643 C   0  0  0
  -30.2825    9.3551   67.3969 H   0  0  0
  -30.8013    7.7277   67.6740 H   0  0  0
  -32.4349    9.1521   67.6770 C   0  0  1
  -33.0546    8.8028   68.5109 H   0  0  0
  -32.5606   10.5961   67.6460 N   0  0  0
  -31.8161   11.1697   67.2726 H   0  0  0
  -33.7126   11.2125   68.0168 C   0  0  0
  -34.7523   10.6530   68.3171 O   0  0  0
  -33.5699   12.5506   68.0511 N   0  0  0
  -34.3776   13.1067   68.3013 H   0  0  0
  -32.6826   13.0045   67.8799 H   0  0  0
  -32.9611    8.5175   66.4087 C   0  0  0
  -32.3860    8.7294   65.1623 C   0  0  0
  -31.5060    9.3525   65.0693 H   0  0  0
  -32.9228    8.1563   64.0247 C   0  0  0
  -32.4627    8.3358   63.0573 H   0  0  0
  -34.0421    7.3539   64.1103 C   0  0  0
  -34.4608    6.9134   63.2124 H   0  0  0
  -34.6068    7.1100   65.3463 C   0  0  0
  -34.0765    7.7001   66.4829 C   0  0  0
  -34.5395    7.5436   67.4503 H   0  0  0
  -35.7347    6.2867   65.4100 O   0  0  0
  -35.8061    5.5549   66.5919 C   0  0  0
  -35.0802    4.3820   66.7126 C   0  0  0
  -34.4920    4.0063   65.8834 H   0  0  0
  -35.0927    3.6976   67.9105 C   0  0  0
  -34.5160    2.7841   68.0192 H   0  0  0
  -35.8344    4.1803   68.9712 C   0  0  0
  -35.8272    3.6484   69.9173 H   0  0  0
  -36.5992    5.3236   68.8302 C   0  0  0
  -37.1993    5.6818   69.6611 H   0  0  0
  -36.6082    6.0038   67.6275 C   0  0  0
  -37.2094    6.8990   67.5062 H   0  0  0
  2  1  1
  2  3  1
  2  8  2
  3  4  2
  3  9  1
  4  5  1
  4  6  1
  6  7  1
  6  8  1
  9 10  1
  9 11  1
 11 12  2
 11 13  1
 13 14  1
 13 15  1
 16 13  1
 16 17  1
 16 18  1
 16 25  1
 18 19  1
 18 20  1
 20 21  2
 20 22  1
 22 23  1
 22 24  1
 25 26  1
 25 33  2
 26 27  1
 26 28  2
 28 29  1
 28 30  1
 30 31  1
 30 32  2
 32 33  1
 32 35  1
 33 34  1
 35 36  1
 36 37  1
 36 45  2
 37 38  1
 37 39  2
 39 40  1
 39 41  1
 41 42  1
 41 43  2
 43 44  1
 43 45  1
 45 46  1
M  ZZC   1 h4
M  ZZC   2 c18
M  ZZC   3 c16
M  ZZC   4 c17
M  ZZC   5 h5
M  ZZC   6 n2
M  ZZC   7 h18
M  ZZC   8 n3
M  ZZC   9 n1
M  ZZC  10 h6
M  ZZC  11 c15
M  ZZC  12 o2
M  ZZC  13 c14
M  ZZC  14 h7
M  ZZC  15 h8
M  ZZC  16 c13
M  ZZC  17 h19
M  ZZC  18 n4
M  ZZC  19 h3
M  ZZC  20 c19
M  ZZC  21 o3
M  ZZC  22 n5
M  ZZC  23 h1
M  ZZC  24 h2
M  ZZC  25 c11
M  ZZC  26 c10
M  ZZC  27 h10
M  ZZC  28 c9
M  ZZC  29 h11
M  ZZC  30 c8
M  ZZC  31 h12
M  ZZC  32 c7
M  ZZC  33 c12
M  ZZC  34 h9
M  ZZC  35 o1
M  ZZC  36 c4
M  ZZC  37 c3
M  ZZC  38 h15
M  ZZC  39 c2
M  ZZC  40 h16
M  ZZC  41 c1
M  ZZC  42 h17
M  ZZC  43 c6
M  ZZC  44 h13
M  ZZC  45 c5
M  ZZC  46 h14
M  ZZM   1 5
M  ZZI   1 1
M  ZZM   2 64
M  ZZI   2 105
M  ZZM   3 64
M  ZZI   3 105
M  ZZM   4 63
M  ZZI   4 104
M  ZZM   5 5
M  ZZI   5 1
M  ZZM   6 39
M  ZZI   6 215
M  ZZM   7 23
M  ZZI   7 10
M  ZZM   8 65
M  ZZI   8 207
M  ZZM   9 10
M  ZZI   9 191
M  ZZM  10 28
M  ZZI  10 11
M  ZZM  11 3
M  ZZI  11 121
M  ZZM  12 7
M  ZZI  12 81
M  ZZM  13 1
M  ZZI  13 112
M  ZZM  14 5
M  ZZI  14 1
M  ZZM  15 5
M  ZZI  15 1
M  ZZM  16 1
M  ZZI  16 113
M  ZZM  17 5
M  ZZI  17 1
M  ZZM  18 10
M  ZZI  18 211
M  ZZM  19 28
M  ZZI  19 11
M  ZZM  20 3
M  ZZI  20 121
M  ZZM  21 7
M  ZZI  21 81
M  ZZM  22 10
M  ZZI  22 212
M  ZZM  23 28
M  ZZI  23 11
M  ZZM  24 28
M  ZZI  24 11
M  ZZM  25 37
M  ZZI  25 124
M  ZZM  26 37
M  ZZI  26 125
M  ZZM  27 5
M  ZZI  27 1
M  ZZM  28 37
M  ZZI  28 125
M  ZZM  29 5
M  ZZI  29 1
M  ZZM  30 37
M  ZZI  30 125
M  ZZM  31 5
M  ZZI  31 1
M  ZZM  32 37
M  ZZI  32 124
M  ZZM  33 37
M  ZZI  33 125
M  ZZM  34 5
M  ZZI  34 1
M  ZZM  35 6
M  ZZI  35 59
M  ZZM  36 37
M  ZZI  36 124
M  ZZM  37 37
M  ZZI  37 125
M  ZZM  38 5
M  ZZI  38 1
M  ZZM  39 37
M  ZZI  39 125
M  ZZM  40 5
M  ZZI  40 1
M  ZZM  41 37
M  ZZI  41 125
M  ZZM  42 5
M  ZZI  42 1
M  ZZM  43 37
M  ZZI  43 125
M  ZZM  44 5
M  ZZI  44 1
M  ZZM  45 37
M  ZZI  45 125
M  ZZM  46 5
M  ZZI  46 1
M  END
> <NAME>
Z647208958

> <Score>
-30.730176

> <Natom>
46

> <Nflex>
6

> <Hbond>
-6.821336

> <Hphob>
-5.839402

> <VwInt>
-29.853496

> <Eintl>
9.16834

> <Dsolv>
15.966644

> <SolEl>
7.149573

> <mfScore>
-95.939304

> <RecConf>
1

> <molLogP>
1.733349

$$$$
Z829133148
  MOLSOFT 11211612053D

 46 48  0  0  1  0  0  0  0  0999 V2000
  -33.9685    7.9493   62.8011 H   0  0  0
  -34.3338    7.6804   63.6650 O   0  0  0
  -34.3820    8.8264   64.5251 C   0  0  2
  -34.7142    9.6778   63.9217 H   0  0  0
  -32.9896    9.1217   65.0867 C   0  0  0
  -32.2499    9.0987   64.2798 H   0  0  0
  -32.6940    8.3439   65.7945 H   0  0  0
  -32.9844   10.4484   65.6517 O   0  0  0
  -32.7063   10.4976   67.0175 C   0  0  0
  -33.3532   11.5092   67.7218 C   0  0  0
  -34.0417   12.1710   67.2067 H   0  0  0
  -33.1330   11.6885   69.0763 C   0  0  0
  -33.6277   12.4755   69.6359 H   0  0  0
  -32.2351   10.8372   69.6749 C   0  0  0
  -31.5946    9.8631   68.9908 C   0  0  0
  -31.7980    9.6487   67.6467 C   0  0  0
  -31.2311    8.8844   67.1272 H   0  0  0
  -30.7259    9.1517   69.7788 O   0  0  0
  -30.8688    9.8506   71.0300 C   0  0  0
  -29.9067   10.3032   71.2939 H   0  0  0
  -31.1313    9.1277   71.8098 H   0  0  0
  -31.8696   10.8839   70.9958 O   0  0  0
  -35.4227    8.6194   65.6405 C   0  0  0
  -36.4114    8.4718   65.1951 H   0  0  0
  -35.4876    9.4989   66.2871 H   0  0  0
  -35.1469    7.4743   66.4979 N   0  0  0
  -34.5177    7.5877   67.2842 H   0  0  0
  -35.6820    6.2335   66.2113 C   0  0  0
  -36.3897    5.9975   65.2434 O   0  0  0
  -35.3262    5.1170   67.1289 C   0  0  0
  -34.9456    3.9297   66.5271 C   0  0  0
  -34.9075    3.8475   65.4489 H   0  0  0
  -34.6027    2.8355   67.2857 C   0  0  0
  -34.3028    1.9190   66.7891 H   0  0  0
  -34.6411    2.9044   68.6643 C   0  0  0
  -34.2977    1.6938   69.4784 C   0  0  0
  -35.1185    0.9702   69.4475 H   0  0  0
  -34.1094    1.9622   70.5223 H   0  0  0
  -33.3885    1.2237   69.0921 H   0  0  0
  -35.0584    4.0802   69.2687 C   0  0  0
  -35.1196    4.1226   70.3524 H   0  0  0
  -35.4242    5.1932   68.5217 C   0  0  0
  -35.9265    6.4104   69.2403 C   0  0  0
  -36.7395    6.8744   68.6762 H   0  0  0
  -35.1199    7.1338   69.3941 H   0  0  0
  -36.3371    6.1416   70.2183 H   0  0  0
  2  1  1
  3  2  1
  3  4  1
  3  5  1
  3 23  1
  5  6  1
  5  7  1
  5  8  1
  8  9  1
  9 10  1
  9 16  2
 10 11  1
 10 12  2
 12 13  1
 12 14  1
 14 15  2
 14 22  1
 15 16  1
 15 18  1
 16 17  1
 18 19  1
 19 20  1
 19 21  1
 19 22  1
 23 24  1
 23 25  1
 23 26  1
 26 27  1
 26 28  1
 28 29  2
 28 30  1
 30 31  1
 30 42  2
 31 32  1
 31 33  2
 33 34  1
 33 35  1
 35 36  1
 35 40  2
 36 37  1
 36 38  1
 36 39  1
 40 41  1
 40 42  1
 42 43  1
 43 44  1
 43 45  1
 43 46  1
M  ZZC   1 h1
M  ZZC   2 o5
M  ZZC   3 c11
M  ZZC   4 h21
M  ZZC   5 c12
M  ZZC   6 h7
M  ZZC   7 h8
M  ZZC   8 o2
M  ZZC   9 c13
M  ZZC  10 c14
M  ZZC  11 h6
M  ZZC  12 c15
M  ZZC  13 h5
M  ZZC  14 c16
M  ZZC  15 c17
M  ZZC  16 c18
M  ZZC  17 h4
M  ZZC  18 o3
M  ZZC  19 c19
M  ZZC  20 h2
M  ZZC  21 h3
M  ZZC  22 o4
M  ZZC  23 c10
M  ZZC  24 h10
M  ZZC  25 h9
M  ZZC  26 n1
M  ZZC  27 h11
M  ZZC  28 c9
M  ZZC  29 o1
M  ZZC  30 c5
M  ZZC  31 c4
M  ZZC  32 h16
M  ZZC  33 c3
M  ZZC  34 h17
M  ZZC  35 c2
M  ZZC  36 c1
M  ZZC  37 h18
M  ZZC  38 h19
M  ZZC  39 h20
M  ZZC  40 c7
M  ZZC  41 h15
M  ZZC  42 c6
M  ZZC  43 c8
M  ZZC  44 h12
M  ZZC  45 h13
M  ZZC  46 h14
M  ZZM   1 21
M  ZZI   1 20
M  ZZM   2 6
M  ZZI   2 60
M  ZZM   3 1
M  ZZI   3 113
M  ZZM   4 5
M  ZZI   4 1
M  ZZM   5 1
M  ZZI   5 112
M  ZZM   6 5
M  ZZI   6 1
M  ZZM   7 5
M  ZZI   7 1
M  ZZM   8 6
M  ZZI   8 59
M  ZZM   9 37
M  ZZI   9 124
M  ZZM  10 37
M  ZZI  10 125
M  ZZM  11 5
M  ZZI  11 1
M  ZZM  12 37
M  ZZI  12 125
M  ZZM  13 5
M  ZZI  13 1
M  ZZM  14 37
M  ZZI  14 124
M  ZZM  15 37
M  ZZI  15 124
M  ZZM  16 37
M  ZZI  16 125
M  ZZM  17 5
M  ZZI  17 1
M  ZZM  18 6
M  ZZI  18 59
M  ZZM  19 1
M  ZZI  19 112
M  ZZM  20 5
M  ZZI  20 1
M  ZZM  21 5
M  ZZI  21 1
M  ZZM  22 6
M  ZZI  22 59
M  ZZM  23 1
M  ZZI  23 112
M  ZZM  24 5
M  ZZI  24 1
M  ZZM  25 5
M  ZZI  25 1
M  ZZM  26 10
M  ZZI  26 211
M  ZZM  27 28
M  ZZI  27 11
M  ZZM  28 3
M  ZZI  28 121
M  ZZM  29 7
M  ZZI  29 81
M  ZZM  30 37
M  ZZI  30 124
M  ZZM  31 37
M  ZZI  31 125
M  ZZM  32 5
M  ZZI  32 1
M  ZZM  33 37
M  ZZI  33 125
M  ZZM  34 5
M  ZZI  34 1
M  ZZM  35 37
M  ZZI  35 124
M  ZZM  36 1
M  ZZI  36 111
M  ZZM  37 5
M  ZZI  37 1
M  ZZM  38 5
M  ZZI  38 1
M  ZZM  39 5
M  ZZI  39 1
M  ZZM  40 37
M  ZZI  40 125
M  ZZM  41 5
M  ZZI  41 1
M  ZZM  42 37
M  ZZI  42 124
M  ZZM  43 1
M  ZZI  43 111
M  ZZM  44 5
M  ZZI  44 1
M  ZZM  45 5
M  ZZI  45 1
M  ZZM  46 5
M  ZZI  46 1
M  END
> <NAME>
Z829133148

> <Score>
-29.708681

> <Natom>
46

> <Nflex>
5

> <Hbond>
-6.017233

> <Hphob>
-6.892533

> <VwInt>
-29.570341

> <Eintl>
7.733624

> <Dsolv>
16.079961

> <SolEl>
7.035282

> <mfScore>
-107.532676

> <RecConf>
1

> <molLogP>
2.987381

$$$$
Z1510191772
  MOLSOFT 11211612053D

 46 48  0  0  1  0  0  0  0  0999 V2000
  -31.1300    9.9321   66.1080 H   0  0  0
  -31.7697    9.0516   66.0739 C   0  0  0
  -31.2138    8.2223   66.5249 H   0  0  0
  -32.1580    8.6820   64.6589 C   0  0  0
  -32.4138    9.5785   64.0837 H   0  0  0
  -31.3587    8.1545   64.1293 H   0  0  0
  -33.3817    7.8238   64.8579 C   0  0  0
  -33.9727    7.7383   63.9399 H   0  0  0
  -33.0904    6.8110   65.1511 H   0  0  0
  -34.1407    8.5264   65.9778 C   0  0  2
  -34.8548    9.2352   65.5396 H   0  0  0
  -33.0867    9.2484   66.8156 C   0  0  1
  -32.9960    8.8471   67.8319 H   0  0  0
  -33.4899   10.7024   66.9314 C   0  0  0
  -33.0508   11.5689   66.1976 O   0  0  0
  -34.4346   10.9529   67.8902 N   0  0  0
  -34.7851   11.8983   68.0150 H   0  0  0
  -34.8200   10.2298   68.4862 H   0  0  0
  -34.9006    7.6114   66.7986 N   0  0  0
  -34.6062    7.4402   67.7542 H   0  0  0
  -35.9768    6.9120   66.3067 C   0  0  0
  -36.3499    6.9465   65.1442 O   0  0  0
  -36.6490    6.0802   67.3649 C   0  0  0
  -36.7507    6.7316   68.2364 H   0  0  0
  -37.6588    5.8427   67.0230 H   0  0  0
  -35.8780    4.8203   67.7024 C   0  0  0
  -35.8731    4.2637   68.9907 C   0  0  0
  -36.6042    4.8149   70.0446 C   0  0  0
  -37.2067    5.6961   69.8772 H   0  0  0
  -36.5958    4.2289   71.3042 C   0  0  0
  -37.3213    4.6969   72.4048 O   0  0  0
  -38.1500    5.8302   72.1225 C   0  0  0
  -37.5426    6.7072   71.8772 H   0  0  0
  -38.7200    6.0651   73.0253 H   0  0  0
  -38.8702    5.6073   71.3295 H   0  0  0
  -35.8408    3.0996   71.5293 C   0  0  0
  -35.8328    2.6388   72.5119 H   0  0  0
  -35.1136    2.5412   70.5005 C   0  0  0
  -34.5377    1.6408   70.6940 H   0  0  0
  -35.1351    3.1061   69.2341 C   0  0  0
  -34.4274    2.4953   68.2121 C   0  0  0
  -33.8507    1.5928   68.3924 H   0  0  0
  -34.4693    3.0154   66.9406 C   0  0  0
  -33.9355    2.5230   66.1342 H   0  0  0
  -35.1917    4.1580   66.6891 C   0  0  0
  -35.2104    4.5293   65.6697 H   0  0  0
  2  1  1
  2  3  1
  2  4  1
 12  2  1
  4  5  1
  4  6  1
  4  7  1
  7  8  1
  7  9  1
 10  7  1
 10 11  1
 10 12  1
 10 19  1
 12 13  1
 12 14  1
 14 15  2
 14 16  1
 16 17  1
 16 18  1
 19 20  1
 19 21  1
 21 22  2
 21 23  1
 23 24  1
 23 25  1
 23 26  1
 26 27  1
 26 45  2
 27 28  2
 27 40  1
 28 29  1
 28 30  1
 30 31  1
 30 36  2
 31 32  1
 32 33  1
 32 34  1
 32 35  1
 36 37  1
 36 38  1
 38 39  1
 38 40  2
 40 41  1
 41 42  1
 41 43  2
 43 44  1
 43 45  1
 45 46  1
M  ZZC   1 h3
M  ZZC   2 c17
M  ZZC   3 h4
M  ZZC   4 c16
M  ZZC   5 h5
M  ZZC   6 h6
M  ZZC   7 c15
M  ZZC   8 h7
M  ZZC   9 h8
M  ZZC  10 c14
M  ZZC  11 h22
M  ZZC  12 c18
M  ZZC  13 h21
M  ZZC  14 c19
M  ZZC  15 o3
M  ZZC  16 n2
M  ZZC  17 h1
M  ZZC  18 h2
M  ZZC  19 n1
M  ZZC  20 h9
M  ZZC  21 c13
M  ZZC  22 o2
M  ZZC  23 c12
M  ZZC  24 h10
M  ZZC  25 h11
M  ZZC  26 c9
M  ZZC  27 c10
M  ZZC  28 c11
M  ZZC  29 h12
M  ZZC  30 c2
M  ZZC  31 o1
M  ZZC  32 c1
M  ZZC  33 h18
M  ZZC  34 h19
M  ZZC  35 h20
M  ZZC  36 c3
M  ZZC  37 h17
M  ZZC  38 c4
M  ZZC  39 h16
M  ZZC  40 c5
M  ZZC  41 c6
M  ZZC  42 h15
M  ZZC  43 c7
M  ZZC  44 h14
M  ZZC  45 c8
M  ZZC  46 h13
M  ZZM   1 5
M  ZZI   1 1
M  ZZM   2 1
M  ZZI   2 112
M  ZZM   3 5
M  ZZI   3 1
M  ZZM   4 1
M  ZZI   4 112
M  ZZM   5 5
M  ZZI   5 1
M  ZZM   6 5
M  ZZI   6 1
M  ZZM   7 1
M  ZZI   7 112
M  ZZM   8 5
M  ZZI   8 1
M  ZZM   9 5
M  ZZI   9 1
M  ZZM  10 1
M  ZZI  10 113
M  ZZM  11 5
M  ZZI  11 1
M  ZZM  12 1
M  ZZI  12 113
M  ZZM  13 5
M  ZZI  13 1
M  ZZM  14 3
M  ZZI  14 121
M  ZZM  15 7
M  ZZI  15 81
M  ZZM  16 10
M  ZZI  16 212
M  ZZM  17 28
M  ZZI  17 11
M  ZZM  18 28
M  ZZI  18 11
M  ZZM  19 10
M  ZZI  19 211
M  ZZM  20 28
M  ZZI  20 11
M  ZZM  21 3
M  ZZI  21 121
M  ZZM  22 7
M  ZZI  22 81
M  ZZM  23 1
M  ZZI  23 112
M  ZZM  24 5
M  ZZI  24 1
M  ZZM  25 5
M  ZZI  25 1
M  ZZM  26 37
M  ZZI  26 124
M  ZZM  27 37
M  ZZI  27 124
M  ZZM  28 37
M  ZZI  28 125
M  ZZM  29 5
M  ZZI  29 1
M  ZZM  30 37
M  ZZI  30 124
M  ZZM  31 6
M  ZZI  31 59
M  ZZM  32 1
M  ZZI  32 111
M  ZZM  33 5
M  ZZI  33 1
M  ZZM  34 5
M  ZZI  34 1
M  ZZM  35 5
M  ZZI  35 1
M  ZZM  36 37
M  ZZI  36 125
M  ZZM  37 5
M  ZZI  37 1
M  ZZM  38 37
M  ZZI  38 125
M  ZZM  39 5
M  ZZI  39 1
M  ZZM  40 37
M  ZZI  40 124
M  ZZM  41 37
M  ZZI  41 125
M  ZZM  42 5
M  ZZI  42 1
M  ZZM  43 37
M  ZZI  43 125
M  ZZM  44 5
M  ZZI  44 1
M  ZZM  45 37
M  ZZI  45 125
M  ZZM  46 5
M  ZZI  46 1
M  END
> <NAME>
Z1510191772

> <Score>
-29.528634

> <Natom>
46

> <Nflex>
4

> <Hbond>
-5.362434

> <Hphob>
-6.334848

> <VwInt>
-26.563069

> <Eintl>
6.290906

> <Dsolv>
12.012642

> <SolEl>
5.206453

> <mfScore>
-104.98221

> <RecConf>
1

> <molLogP>
2.758802

$$$$
Z1139322649
  MOLSOFT 11211612053D

 46 49  0  0  1  0  0  0  0  0999 V2000
  -34.0975    1.9421   70.4744 F   0  0  0
  -34.4238    2.5214   69.3087 C   0  0  0
  -34.0694    1.9121   68.1319 C   0  0  0
  -33.5266    0.9736   68.1362 H   0  0  0
  -34.4282    2.5220   66.9527 C   0  0  0
  -34.1652    2.0689   66.0059 H   0  0  0
  -35.1270    3.7111   66.9628 C   0  0  0
  -35.4053    4.1273   66.0043 H   0  0  0
  -35.4649    4.3661   68.1419 C   0  0  0
  -35.0995    3.7213   69.3171 C   0  0  0
  -35.3444    4.1675   70.2750 H   0  0  0
  -36.1797    5.6786   68.2169 C   0  0  2
  -37.1087    5.6360   68.7749 H   0  0  0
  -36.1274    6.8540   67.2402 C   0  0  1
  -37.0053    7.4844   67.2607 H   0  0  0
  -35.2972    6.8631   68.4954 C   0  0  0
  -35.5883    7.5291   69.2977 H   0  0  0
  -34.2294    6.6946   68.4433 H   0  0  0
  -35.6383    6.7049   65.8446 C   0  0  0
  -36.2920    6.0078   65.0866 O   0  0  0
  -34.5359    7.4321   65.4189 N   0  0  0
  -33.8001    8.4467   66.1466 C   0  0  1
  -33.5596    8.0973   67.1509 H   0  0  0
  -32.5126    8.5820   65.3407 C   0  0  0
  -31.8122    7.7904   65.6278 H   0  0  0
  -31.9968    9.5368   65.4680 H   0  0  0
  -32.9687    8.3480   63.9190 C   0  0  0
  -33.4205    9.2626   63.5287 H   0  0  0
  -32.1593    8.0547   63.2435 H   0  0  0
  -34.0264    7.2763   64.0712 C   0  0  0
  -33.6023    6.2731   63.9822 H   0  0  0
  -34.8316    7.3761   63.3362 H   0  0  0
  -34.6215    9.7425   66.2248 C   0  0  0
  -34.7358   10.2278   65.2493 H   0  0  0
  -35.6303    9.5591   66.6084 H   0  0  0
  -34.0096   10.7031   67.1272 N   0  0  0
  -34.1378   10.7322   68.4909 C   0  0  0
  -34.7763   10.0400   69.0214 H   0  0  0
  -33.2984   11.7287   68.9274 C   0  0  0
  -33.0200   12.1432   70.3175 C   0  0  0
  -33.8057   12.8053   70.6883 H   0  0  0
  -32.0674   12.6762   70.3835 H   0  0  0
  -32.9631   11.2742   70.9792 H   0  0  0
  -32.7517   12.2607   67.7375 C   0  0  0
  -32.0449   13.0660   67.6338 H   0  0  0
  -33.1874   11.6477   66.6336 N   0  0  0
  2  1  1
  2  3  1
  2 10  2
  3  4  1
  3  5  2
  5  6  1
  5  7  1
  7  8  1
  7  9  2
  9 10  1
 12  9  1
 10 11  1
 12 13  1
 12 14  1
 12 16  1
 14 15  1
 14 16  1
 14 19  1
 16 17  1
 16 18  1
 19 20  2
 19 21  1
 22 21  1
 21 30  1
 22 23  1
 22 24  1
 22 33  1
 24 25  1
 24 26  1
 24 27  1
 27 28  1
 27 29  1
 27 30  1
 30 31  1
 30 32  1
 33 34  1
 33 35  1
 33 36  1
 36 37  1
 36 46  1
 37 38  1
 37 39  2
 39 40  1
 39 44  1
 40 41  1
 40 42  1
 40 43  1
 44 45  1
 44 46  2
M  ZZC   1 f1
M  ZZC   2 c18
M  ZZC   3 c17
M  ZZC   4 h2
M  ZZC   5 c16
M  ZZC   6 h3
M  ZZC   7 c15
M  ZZC   8 h4
M  ZZC   9 c14
M  ZZC  10 c19
M  ZZC  11 h1
M  ZZC  12 c13
M  ZZC  13 h20
M  ZZC  14 c11
M  ZZC  15 h21
M  ZZC  16 c12
M  ZZC  17 h5
M  ZZC  18 h6
M  ZZC  19 c10
M  ZZC  20 o1
M  ZZC  21 n3
M  ZZC  22 c6
M  ZZC  23 h22
M  ZZC  24 c7
M  ZZC  25 h11
M  ZZC  26 h12
M  ZZC  27 c8
M  ZZC  28 h10
M  ZZC  29 h9
M  ZZC  30 c9
M  ZZC  31 h7
M  ZZC  32 h8
M  ZZC  33 c5
M  ZZC  34 h13
M  ZZC  35 h14
M  ZZC  36 n2
M  ZZC  37 c4
M  ZZC  38 h15
M  ZZC  39 c2
M  ZZC  40 c1
M  ZZC  41 h17
M  ZZC  42 h18
M  ZZC  43 h19
M  ZZC  44 c3
M  ZZC  45 h16
M  ZZC  46 n1
M  ZZM   1 11
M  ZZI   1 90
M  ZZM   2 37
M  ZZI   2 124
M  ZZM   3 37
M  ZZI   3 125
M  ZZM   4 5
M  ZZI   4 1
M  ZZM   5 37
M  ZZI   5 125
M  ZZM   6 5
M  ZZI   6 1
M  ZZM   7 37
M  ZZI   7 125
M  ZZM   8 5
M  ZZI   8 1
M  ZZM   9 37
M  ZZI   9 124
M  ZZM  10 37
M  ZZI  10 125
M  ZZM  11 5
M  ZZI  11 1
M  ZZM  12 22
M  ZZI  12 109
M  ZZM  13 5
M  ZZI  13 1
M  ZZM  14 22
M  ZZI  14 109
M  ZZM  15 5
M  ZZI  15 1
M  ZZM  16 22
M  ZZI  16 109
M  ZZM  17 5
M  ZZI  17 1
M  ZZM  18 5
M  ZZI  18 1
M  ZZM  19 3
M  ZZI  19 121
M  ZZM  20 7
M  ZZI  20 81
M  ZZM  21 10
M  ZZI  21 192
M  ZZM  22 1
M  ZZI  22 113
M  ZZM  23 5
M  ZZI  23 1
M  ZZM  24 1
M  ZZI  24 112
M  ZZM  25 5
M  ZZI  25 1
M  ZZM  26 5
M  ZZI  26 1
M  ZZM  27 1
M  ZZI  27 112
M  ZZM  28 5
M  ZZI  28 1
M  ZZM  29 5
M  ZZI  29 1
M  ZZM  30 1
M  ZZI  30 112
M  ZZM  31 5
M  ZZI  31 1
M  ZZM  32 5
M  ZZI  32 1
M  ZZM  33 1
M  ZZI  33 112
M  ZZM  34 5
M  ZZI  34 1
M  ZZM  35 5
M  ZZI  35 1
M  ZZM  36 39
M  ZZI  36 215
M  ZZM  37 63
M  ZZI  37 104
M  ZZM  38 5
M  ZZI  38 1
M  ZZM  39 64
M  ZZI  39 105
M  ZZM  40 1
M  ZZI  40 111
M  ZZM  41 5
M  ZZI  41 1
M  ZZM  42 5
M  ZZI  42 1
M  ZZM  43 5
M  ZZI  43 1
M  ZZM  44 64
M  ZZI  44 105
M  ZZM  45 5
M  ZZI  45 1
M  ZZM  46 65
M  ZZI  46 207
M  END
> <NAME>
Z1139322649

> <Score>
-29.440371

> <Natom>
46

> <Nflex>
5

> <Hbond>
-2.744584

> <Hphob>
-6.971765

> <VwInt>
-29.19001

> <Eintl>
9.050079

> <Dsolv>
7.556596

> <SolEl>
4.086473

> <mfScore>
-99.216983

> <RecConf>
1

> <molLogP>
2.859328

$$$$
Z608784856
  MOLSOFT 11211612053D

 46 48  0  0  0  0  0  0  0  0999 V2000
  -35.6978   10.2800   68.0326 H   0  0  0
  -34.7234   10.5539   67.6160 C   0  0  0
  -34.8924   11.2159   66.7629 H   0  0  0
  -33.8979    9.3552   67.1954 C   0  0  0
  -33.8814    8.6576   68.0363 H   0  0  0
  -32.4926    9.9362   67.0720 C   0  0  0
  -32.2747   10.3271   66.0757 H   0  0  0
  -31.7280    9.1824   67.2864 H   0  0  0
  -32.4420   11.0881   68.0653 C   0  0  0
  -32.1377   12.0094   67.5583 H   0  0  0
  -31.7206   10.8969   68.8659 H   0  0  0
  -33.8399   11.2431   68.6274 C   0  0  0
  -34.1145   12.2926   68.7736 H   0  0  0
  -33.9131   10.7374   69.5964 H   0  0  0
  -34.4747    8.6622   66.0234 N   0  0  0
  -34.1549    9.1158   64.6663 C   0  0  0
  -33.9010   10.1789   64.6562 H   0  0  0
  -35.0285    8.9817   64.0229 H   0  0  0
  -32.9982    8.2838   64.1233 C   0  0  0
  -31.9699    8.0578   64.7413 O   0  0  0
  -33.1870    7.7868   62.8643 N   0  0  0
  -32.4664    7.1974   62.4641 H   0  0  0
  -34.0066    7.9675   62.2967 H   0  0  0
  -35.3790    7.6049   66.1330 C   0  0  0
  -35.9859    7.1485   65.1726 O   0  0  0
  -35.5354    7.0215   67.5186 C   0  0  0
  -34.5469    6.7000   67.8647 H   0  0  0
  -35.9127    7.7866   68.2050 H   0  0  0
  -36.4733    5.8266   67.5201 C   0  0  0
  -37.5099    6.1753   67.4545 H   0  0  0
  -36.3071    5.2062   66.6331 H   0  0  0
  -36.2833    5.0003   68.7387 C   0  0  0
  -35.4591    3.8400   68.8560 C   0  0  0
  -35.5560    3.3927   70.1638 C   0  0  0
  -36.4093    4.2387   70.8211 N   0  0  0
  -36.6783    4.1461   71.7927 H   0  0  0
  -36.8629    5.2073   69.9728 C   0  0  0
  -37.5573    5.9612   70.3179 H   0  0  0
  -34.8862    2.2790   70.6316 C   0  0  0
  -34.9788    1.9411   71.6589 H   0  0  0
  -34.0934    1.6023   69.7296 C   0  0  0
  -33.5522    0.7216   70.0560 H   0  0  0
  -33.9780    2.0227   68.4233 C   0  0  0
  -33.3473    1.4662   67.7375 H   0  0  0
  -34.6516    3.1371   67.9691 C   0  0  0
  -34.5509    3.4443   66.9330 H   0  0  0
  2  1  1
  2  3  1
  2  4  1
  2 12  1
  4  5  1
  4  6  1
  4 15  1
  6  7  1
  6  8  1
  6  9  1
  9 10  1
  9 11  1
  9 12  1
 12 13  1
 12 14  1
 15 16  1
 15 24  1
 16 17  1
 16 18  1
 16 19  1
 19 20  2
 19 21  1
 21 22  1
 21 23  1
 24 25  2
 24 26  1
 26 27  1
 26 28  1
 26 29  1
 29 30  1
 29 31  1
 29 32  1
 32 33  1
 32 37  2
 33 34  2
 33 45  1
 34 35  1
 34 39  1
 35 36  1
 35 37  1
 37 38  1
 39 40  1
 39 41  2
 41 42  1
 41 43  1
 43 44  1
 43 45  2
 45 46  1
M  ZZC   1 h1
M  ZZC   2 c18
M  ZZC   3 h2
M  ZZC   4 c14
M  ZZC   5 h9
M  ZZC   6 c15
M  ZZC   7 h7
M  ZZC   8 h8
M  ZZC   9 c16
M  ZZC  10 h5
M  ZZC  11 h6
M  ZZC  12 c17
M  ZZC  13 h3
M  ZZC  14 h4
M  ZZC  15 n2
M  ZZC  16 c12
M  ZZC  17 h12
M  ZZC  18 h13
M  ZZC  19 c13
M  ZZC  20 o2
M  ZZC  21 n3
M  ZZC  22 h10
M  ZZC  23 h11
M  ZZC  24 c11
M  ZZC  25 o1
M  ZZC  26 c10
M  ZZC  27 h14
M  ZZC  28 h15
M  ZZC  29 c9
M  ZZC  30 h16
M  ZZC  31 h17
M  ZZC  32 c7
M  ZZC  33 c5
M  ZZC  34 c4
M  ZZC  35 n1
M  ZZC  36 h23
M  ZZC  37 c8
M  ZZC  38 h18
M  ZZC  39 c3
M  ZZC  40 h20
M  ZZC  41 c2
M  ZZC  42 h21
M  ZZC  43 c1
M  ZZC  44 h22
M  ZZC  45 c6
M  ZZC  46 h19
M  ZZM   1 5
M  ZZI   1 1
M  ZZM   2 1
M  ZZI   2 112
M  ZZM   3 5
M  ZZI   3 1
M  ZZM   4 1
M  ZZI   4 113
M  ZZM   5 5
M  ZZI   5 1
M  ZZM   6 1
M  ZZI   6 112
M  ZZM   7 5
M  ZZI   7 1
M  ZZM   8 5
M  ZZI   8 1
M  ZZM   9 1
M  ZZI   9 112
M  ZZM  10 5
M  ZZI  10 1
M  ZZM  11 5
M  ZZI  11 1
M  ZZM  12 1
M  ZZI  12 112
M  ZZM  13 5
M  ZZI  13 1
M  ZZM  14 5
M  ZZI  14 1
M  ZZM  15 10
M  ZZI  15 192
M  ZZM  16 1
M  ZZI  16 112
M  ZZM  17 5
M  ZZI  17 1
M  ZZM  18 5
M  ZZI  18 1
M  ZZM  19 3
M  ZZI  19 121
M  ZZM  20 7
M  ZZI  20 81
M  ZZM  21 10
M  ZZI  21 212
M  ZZM  22 28
M  ZZI  22 11
M  ZZM  23 28
M  ZZI  23 11
M  ZZM  24 3
M  ZZI  24 121
M  ZZM  25 7
M  ZZI  25 81
M  ZZM  26 1
M  ZZI  26 112
M  ZZM  27 5
M  ZZI  27 1
M  ZZM  28 5
M  ZZI  28 1
M  ZZM  29 1
M  ZZI  29 112
M  ZZM  30 5
M  ZZI  30 1
M  ZZM  31 5
M  ZZI  31 1
M  ZZM  32 64
M  ZZI  32 105
M  ZZM  33 64
M  ZZI  33 105
M  ZZM  34 63
M  ZZI  34 104
M  ZZM  35 39
M  ZZI  35 215
M  ZZM  36 23
M  ZZI  36 10
M  ZZM  37 63
M  ZZI  37 104
M  ZZM  38 5
M  ZZI  38 1
M  ZZM  39 37
M  ZZI  39 125
M  ZZM  40 5
M  ZZI  40 1
M  ZZM  41 37
M  ZZI  41 125
M  ZZM  42 5
M  ZZI  42 1
M  ZZM  43 37
M  ZZI  43 125
M  ZZM  44 5
M  ZZI  44 1
M  ZZM  45 37
M  ZZI  45 125
M  ZZM  46 5
M  ZZI  46 1
M  END
> <NAME>
Z608784856

> <Score>
-29.297694

> <Natom>
46

> <Nflex>
7

> <Hbond>
-5.732438

> <Hphob>
-6.428493

> <VwInt>
-27.349379

> <Eintl>
4.289326

> <Dsolv>
11.403945

> <SolEl>
6.225583

> <mfScore>
-88.967407

> <RecConf>
1

> <molLogP>
2.448907

$$$$
Z1334523994
  MOLSOFT 11211612053D

 46 47  0  0  0  0  0  0  0  0999 V2000
  -34.5474    2.5281   70.6687 Cl  0  0  0
  -34.9355    3.9706   69.7960 C   0  0  0
  -35.1398    3.9312   68.4283 C   0  0  0
  -34.9716    2.6980   67.8008 O   0  0  0
  -34.7729    2.8304   66.3920 C   0  0  0
  -35.7448    3.0163   65.9414 H   0  0  0
  -34.3888    1.9099   65.9464 H   0  0  0
  -34.1179    3.6770   66.1695 H   0  0  0
  -35.4886    5.0858   67.7412 C   0  0  0
  -35.6908    5.0552   66.6794 H   0  0  0
  -35.5432    6.2928   68.4162 C   0  0  0
  -35.2697    6.3348   69.7781 C   0  0  0
  -35.0022    5.1663   70.4808 C   0  0  0
  -34.8217    5.1661   71.5494 H   0  0  0
  -35.2939    7.6032   70.3670 O   0  0  0
  -34.8111    7.6325   71.7136 C   0  0  0
  -35.5118    7.0661   72.3327 H   0  0  0
  -34.7813    8.6561   72.1024 H   0  0  0
  -33.8329    7.1460   71.7882 H   0  0  0
  -35.8297    7.5161   67.7659 N   0  0  0
  -35.7130    8.3451   68.3501 H   0  0  0
  -36.2046    7.6811   66.4367 C   0  0  0
  -36.4066    6.7887   65.6204 O   0  0  0
  -36.3313    9.1466   66.0481 C   0  0  0
  -37.2745    9.2666   65.5064 H   0  0  0
  -36.4130    9.7829   66.9289 H   0  0  0
  -35.2192    9.5620   65.1780 N   0  0  0
  -35.4184    9.5444   64.1814 H   0  0  0
  -33.8693    9.3342   65.5526 C   0  0  0
  -33.0436    8.5688   64.7195 C   0  0  0
  -33.5608    7.8903   63.4807 C   0  0  0
  -34.0528    6.9492   63.7440 H   0  0  0
  -32.7419    7.6666   62.7904 H   0  0  0
  -34.2661    8.5138   62.9307 H   0  0  0
  -31.7261    8.3278   65.0787 C   0  0  0
  -31.0874    7.7439   64.4226 H   0  0  0
  -31.2072    8.7899   66.2665 C   0  0  0
  -30.1763    8.5758   66.5302 H   0  0  0
  -32.0068    9.5085   67.1220 C   0  0  0
  -31.6029    9.8674   68.0647 H   0  0  0
  -33.3165    9.7767   66.7621 C   0  0  0
  -34.1002   10.5743   67.7246 C   0  0  0
  -34.7040   10.0311   68.6371 O   0  0  0
  -34.0714   11.9242   67.5157 N   0  0  0
  -34.6186   12.5318   68.1152 H   0  0  0
  -33.5414   12.3552   66.7696 H   0  0  0
  2  1  1
  2  3  2
  2 13  1
  3  4  1
  3  9  1
  4  5  1
  5  6  1
  5  7  1
  5  8  1
  9 10  1
  9 11  2
 11 12  1
 11 20  1
 12 13  2
 12 15  1
 13 14  1
 15 16  1
 16 17  1
 16 18  1
 16 19  1
 20 21  1
 20 22  1
 22 23  2
 22 24  1
 24 25  1
 24 26  1
 24 27  1
 27 28  1
 27 29  1
 29 30  2
 29 41  1
 30 31  1
 30 35  1
 31 32  1
 31 33  1
 31 34  1
 35 36  1
 35 37  2
 37 38  1
 37 39  1
 39 40  1
 39 41  2
 41 42  1
 42 43  2
 42 44  1
 44 45  1
 44 46  1
M  ZZC   1 &Cl1
M  ZZC   2 c13
M  ZZC   3 c12
M  ZZC   4 o3
M  ZZC   5 c17
M  ZZC   6 h3
M  ZZC   7 h4
M  ZZC   8 h5
M  ZZC   9 c11
M  ZZC  10 h10
M  ZZC  11 c10
M  ZZC  12 c15
M  ZZC  13 c14
M  ZZC  14 h9
M  ZZC  15 o2
M  ZZC  16 c16
M  ZZC  17 h6
M  ZZC  18 h7
M  ZZC  19 h8
M  ZZC  20 n2
M  ZZC  21 h11
M  ZZC  22 c9
M  ZZC  23 o1
M  ZZC  24 c8
M  ZZC  25 h12
M  ZZC  26 h13
M  ZZC  27 n1
M  ZZC  28 h14
M  ZZC  29 c7
M  ZZC  30 c2
M  ZZC  31 c1
M  ZZC  32 h18
M  ZZC  33 h19
M  ZZC  34 h20
M  ZZC  35 c3
M  ZZC  36 h17
M  ZZC  37 c4
M  ZZC  38 h16
M  ZZC  39 c5
M  ZZC  40 h15
M  ZZC  41 c6
M  ZZC  42 c18
M  ZZC  43 o4
M  ZZC  44 n3
M  ZZC  45 h1
M  ZZC  46 h2
M  ZZM   1 12
M  ZZI   1 92
M  ZZM   2 37
M  ZZI   2 124
M  ZZM   3 37
M  ZZI   3 124
M  ZZM   4 6
M  ZZI   4 59
M  ZZM   5 1
M  ZZI   5 111
M  ZZM   6 5
M  ZZI   6 1
M  ZZM   7 5
M  ZZI   7 1
M  ZZM   8 5
M  ZZI   8 1
M  ZZM   9 37
M  ZZI   9 125
M  ZZM  10 5
M  ZZI  10 1
M  ZZM  11 37
M  ZZI  11 124
M  ZZM  12 37
M  ZZI  12 124
M  ZZM  13 37
M  ZZI  13 125
M  ZZM  14 5
M  ZZI  14 1
M  ZZM  15 6
M  ZZI  15 59
M  ZZM  16 1
M  ZZI  16 111
M  ZZM  17 5
M  ZZI  17 1
M  ZZM  18 5
M  ZZI  18 1
M  ZZM  19 5
M  ZZI  19 1
M  ZZM  20 10
M  ZZI  20 191
M  ZZM  21 28
M  ZZI  21 11
M  ZZM  22 3
M  ZZI  22 121
M  ZZM  23 7
M  ZZI  23 81
M  ZZM  24 1
M  ZZI  24 112
M  ZZM  25 5
M  ZZI  25 1
M  ZZM  26 5
M  ZZI  26 1
M  ZZM  27 40
M  ZZI  27 194
M  ZZM  28 28
M  ZZI  28 11
M  ZZM  29 37
M  ZZI  29 124
M  ZZM  30 37
M  ZZI  30 124
M  ZZM  31 1
M  ZZI  31 111
M  ZZM  32 5
M  ZZI  32 1
M  ZZM  33 5
M  ZZI  33 1
M  ZZM  34 5
M  ZZI  34 1
M  ZZM  35 37
M  ZZI  35 125
M  ZZM  36 5
M  ZZI  36 1
M  ZZM  37 37
M  ZZI  37 125
M  ZZM  38 5
M  ZZI  38 1
M  ZZM  39 37
M  ZZI  39 125
M  ZZM  40 5
M  ZZI  40 1
M  ZZM  41 37
M  ZZI  41 124
M  ZZM  42 3
M  ZZI  42 121
M  ZZM  43 7
M  ZZI  43 81
M  ZZM  44 10
M  ZZI  44 212
M  ZZM  45 28
M  ZZI  45 11
M  ZZM  46 28
M  ZZI  46 11
M  END
> <NAME>
Z1334523994

> <Score>
-28.84061

> <Natom>
46

> <Nflex>
2

> <Hbond>
-4.189617

> <Hphob>
-6.433463

> <VwInt>
-29.725471

> <Eintl>
9.104449

> <Dsolv>
13.355825

> <SolEl>
6.936581

> <mfScore>
-99.049719

> <RecConf>
1

> <molLogP>
2.309807

$$$$
Z227423908
  MOLSOFT 11211612053D

 46 48  0  0  1  0  0  0  0  0999 V2000
  -36.3605    7.0305   65.0429 O   0  0  0
  -35.8607    7.3330   66.1164 C   0  0  0
  -35.7530    8.7557   66.5985 C   0  0  0
  -36.1142    9.4174   65.8032 H   0  0  0
  -36.4478    8.8822   67.4315 H   0  0  0
  -34.3321    9.1224   67.0323 C   0  0  2
  -34.0722    8.4883   67.8880 H   0  0  0
  -34.3135   10.4997   67.4960 N   0  0  0
  -34.7573   11.2169   66.9420 H   0  0  0
  -33.5875   10.9082   68.5749 C   0  0  0
  -32.8765   10.1974   69.2631 O   0  0  0
  -33.7533   12.2258   68.8243 N   0  0  0
  -33.2372   12.6533   69.5823 H   0  0  0
  -34.4400   12.7817   68.3326 H   0  0  0
  -33.2749    8.8902   65.9677 C   0  0  0
  -33.5496    8.8758   64.6008 C   0  0  0
  -34.5474    9.0685   64.2218 H   0  0  0
  -32.5625    8.5820   63.6825 C   0  0  0
  -32.7982    8.5211   62.6257 H   0  0  0
  -31.2725    8.3536   64.0982 C   0  0  0
  -30.4967    8.1293   63.3724 H   0  0  0
  -30.9731    8.4096   65.4408 C   0  0  0
  -29.9556    8.2346   65.7752 H   0  0  0
  -31.9630    8.6640   66.3638 C   0  0  0
  -31.6978    8.6769   67.4169 H   0  0  0
  -35.3626    6.4434   67.0213 O   0  0  0
  -35.5339    5.0928   66.5807 C   0  0  0
  -34.8549    4.9267   65.7380 H   0  0  0
  -36.5561    4.9232   66.2288 H   0  0  0
  -35.2209    4.1172   67.6861 C   0  0  0
  -34.3839    3.0510   67.3836 C   0  0  0
  -33.9798    2.9368   66.3817 H   0  0  0
  -34.0422    2.1167   68.3337 C   0  0  0
  -33.3760    1.2996   68.0760 H   0  0  0
  -34.5497    2.2173   69.6075 C   0  0  0
  -34.2731    1.4699   70.3450 H   0  0  0
  -35.4232    3.2438   69.9295 C   0  0  0
  -35.7749    4.1976   68.9744 C   0  0  0
  -36.6922    5.1815   69.3439 C   0  0  0
  -37.0289    5.9321   68.6385 H   0  0  0
  -37.2305    5.2228   70.6141 C   0  0  0
  -37.9512    5.9920   70.8742 H   0  0  0
  -36.8645    4.2835   71.5498 C   0  0  0
  -37.2928    4.3111   72.5467 H   0  0  0
  -35.9625    3.2989   71.2079 C   0  0  0
  -35.6946    2.5547   71.9519 H   0  0  0
  2  1  2
  2  3  1
  2 26  1
  3  4  1
  3  5  1
  6  3  1
  6  7  1
  6  8  1
  6 15  1
  8  9  1
  8 10  1
 10 11  2
 10 12  1
 12 13  1
 12 14  1
 15 16  2
 15 24  1
 16 17  1
 16 18  1
 18 19  1
 18 20  2
 20 21  1
 20 22  1
 22 23  1
 22 24  2
 24 25  1
 26 27  1
 27 28  1
 27 29  1
 27 30  1
 30 31  1
 30 38  2
 31 32  1
 31 33  2
 33 34  1
 33 35  1
 35 36  1
 35 37  2
 37 38  1
 37 45  1
 38 39  1
 39 40  1
 39 41  2
 41 42  1
 41 43  1
 43 44  1
 43 45  2
 45 46  1
M  ZZC   1 o1
M  ZZC   2 c9
M  ZZC   3 c8
M  ZZC   4 h13
M  ZZC   5 h14
M  ZZC   6 c7
M  ZZC   7 h20
M  ZZC   8 n1
M  ZZC   9 h3
M  ZZC  10 c21
M  ZZC  11 o3
M  ZZC  12 n2
M  ZZC  13 h1
M  ZZC  14 h2
M  ZZC  15 c4
M  ZZC  16 c3
M  ZZC  17 h17
M  ZZC  18 c2
M  ZZC  19 h18
M  ZZC  20 c1
M  ZZC  21 h19
M  ZZC  22 c6
M  ZZC  23 h15
M  ZZC  24 c5
M  ZZC  25 h16
M  ZZC  26 o2
M  ZZC  27 c10
M  ZZC  28 h11
M  ZZC  29 h12
M  ZZC  30 c11
M  ZZC  31 c12
M  ZZC  32 h10
M  ZZC  33 c13
M  ZZC  34 h9
M  ZZC  35 c14
M  ZZC  36 h8
M  ZZC  37 c15
M  ZZC  38 c16
M  ZZC  39 c17
M  ZZC  40 h7
M  ZZC  41 c18
M  ZZC  42 h6
M  ZZC  43 c19
M  ZZC  44 h5
M  ZZC  45 c20
M  ZZC  46 h4
M  ZZM   1 7
M  ZZI   1 82
M  ZZM   2 3
M  ZZI   2 123
M  ZZM   3 1
M  ZZI   3 112
M  ZZM   4 5
M  ZZI   4 1
M  ZZM   5 5
M  ZZI   5 1
M  ZZM   6 1
M  ZZI   6 113
M  ZZM   7 5
M  ZZI   7 1
M  ZZM   8 10
M  ZZI   8 211
M  ZZM   9 28
M  ZZI   9 11
M  ZZM  10 3
M  ZZI  10 121
M  ZZM  11 7
M  ZZI  11 81
M  ZZM  12 10
M  ZZI  12 212
M  ZZM  13 28
M  ZZI  13 11
M  ZZM  14 28
M  ZZI  14 11
M  ZZM  15 37
M  ZZI  15 124
M  ZZM  16 37
M  ZZI  16 125
M  ZZM  17 5
M  ZZI  17 1
M  ZZM  18 37
M  ZZI  18 125
M  ZZM  19 5
M  ZZI  19 1
M  ZZM  20 37
M  ZZI  20 125
M  ZZM  21 5
M  ZZI  21 1
M  ZZM  22 37
M  ZZI  22 125
M  ZZM  23 5
M  ZZI  23 1
M  ZZM  24 37
M  ZZI  24 125
M  ZZM  25 5
M  ZZI  25 1
M  ZZM  26 6
M  ZZI  26 65
M  ZZM  27 1
M  ZZI  27 112
M  ZZM  28 5
M  ZZI  28 1
M  ZZM  29 5
M  ZZI  29 1
M  ZZM  30 37
M  ZZI  30 124
M  ZZM  31 37
M  ZZI  31 125
M  ZZM  32 5
M  ZZI  32 1
M  ZZM  33 37
M  ZZI  33 125
M  ZZM  34 5
M  ZZI  34 1
M  ZZM  35 37
M  ZZI  35 125
M  ZZM  36 5
M  ZZI  36 1
M  ZZM  37 37
M  ZZI  37 124
M  ZZM  38 37
M  ZZI  38 124
M  ZZM  39 37
M  ZZI  39 125
M  ZZM  40 5
M  ZZI  40 1
M  ZZM  41 37
M  ZZI  41 125
M  ZZM  42 5
M  ZZI  42 1
M  ZZM  43 37
M  ZZI  43 125
M  ZZM  44 5
M  ZZI  44 1
M  ZZM  45 37
M  ZZI  45 125
M  ZZM  46 5
M  ZZI  46 1
M  END
> <NAME>
Z227423908

> <Score>
-28.243379

> <Natom>
46

> <Nflex>
7

> <Hbond>
-3.797026

> <Hphob>
-6.072873

> <VwInt>
-31.734402

> <Eintl>
8.719946

> <Dsolv>
12.927112

> <SolEl>
4.956046

> <mfScore>
-114.835008

> <RecConf>
1

> <molLogP>
3.786015

$$$$
Z1374912356
  MOLSOFT 11211612053D

 46 47  0  0  1  0  0  0  0  0999 V2000
  -31.2044    9.2153   69.9853 F   0  0  0
  -31.9527   10.0937   69.2994 C   0  0  0
  -32.3883   11.2441   69.9235 C   0  0  0
  -32.1321   11.4281   70.9611 H   0  0  0
  -33.1281   12.1668   69.2117 C   0  0  0
  -33.4623   13.0826   69.6878 H   0  0  0
  -33.4331   11.9254   67.8872 C   0  0  0
  -34.0092   12.6531   67.3273 H   0  0  0
  -33.0254   10.7505   67.2840 C   0  0  0
  -32.2585    9.8311   67.9812 C   0  0  0
  -31.8753    8.9301   67.5156 H   0  0  0
  -33.3692   10.5646   65.9453 O   0  0  0
  -34.0901    9.3237   65.7545 C   0  0  2
  -33.6165    8.5173   66.3207 H   0  0  0
  -34.0251    8.9506   64.2691 C   0  0  0
  -34.6349    8.0672   64.0586 H   0  0  0
  -34.4276    9.7719   63.6699 H   0  0  0
  -32.6052    8.6605   63.8123 C   0  0  0
  -31.9752    9.5478   63.8940 H   0  0  0
  -32.5980    8.3411   62.7662 H   0  0  0
  -32.1548    7.8617   64.4091 H   0  0  0
  -35.5492    9.5214   66.2158 C   0  0  0
  -35.9762   10.3418   65.6385 H   0  0  0
  -35.6046    9.8381   67.2621 H   0  0  0
  -36.4052    8.3564   66.0017 N   0  0  0
  -36.9468    8.3208   65.1448 H   0  0  0
  -36.0606    7.0982   66.5039 C   0  0  0
  -35.4331    6.9582   67.7332 C   0  0  0
  -35.2423    7.8220   68.3598 H   0  0  0
  -35.0285    5.7141   68.1678 C   0  0  0
  -34.5082    5.6221   69.1129 H   0  0  0
  -35.2729    4.6290   67.3424 C   0  0  0
  -35.9122    4.8549   66.1395 C   0  0  0
  -36.1174    4.0390   65.4544 H   0  0  0
  -36.3260    6.0552   65.7138 N   0  0  0
  -34.7800    3.2549   67.6110 C   0  0  0
  -34.3749    2.6333   66.6392 O   0  0  0
  -34.7773    2.7548   68.9125 N   0  0  0
  -34.1247    1.4788   69.1469 C   0  0  0
  -34.8937    0.7246   69.3352 H   0  0  0
  -33.4761    1.5658   70.0233 H   0  0  0
  -33.5251    1.1701   68.2859 H   0  0  0
  -35.4690    3.3365   70.0546 C   0  0  0
  -34.7256    3.7665   70.7326 H   0  0  0
  -36.0136    2.5479   70.5825 H   0  0  0
  -36.1857    4.1030   69.7535 H   0  0  0
  2  1  1
  2  3  1
  2 10  2
  3  4  1
  3  5  2
  5  6  1
  5  7  1
  7  8  1
  7  9  2
  9 10  1
  9 12  1
 10 11  1
 13 12  1
 13 14  1
 13 15  1
 13 22  1
 15 16  1
 15 17  1
 15 18  1
 18 19  1
 18 20  1
 18 21  1
 22 23  1
 22 24  1
 22 25  1
 25 26  1
 25 27  1
 27 28  2
 27 35  1
 28 29  1
 28 30  1
 30 31  1
 30 32  2
 32 33  1
 32 36  1
 33 34  1
 33 35  2
 36 37  2
 36 38  1
 38 39  1
 38 43  1
 39 40  1
 39 41  1
 39 42  1
 43 44  1
 43 45  1
 43 46  1
M  ZZC   1 f1
M  ZZC   2 c17
M  ZZC   3 c16
M  ZZC   4 h2
M  ZZC   5 c15
M  ZZC   6 h3
M  ZZC   7 c14
M  ZZC   8 h4
M  ZZC   9 c13
M  ZZC  10 c18
M  ZZC  11 h1
M  ZZC  12 o2
M  ZZC  13 c3
M  ZZC  14 h22
M  ZZC  15 c2
M  ZZC  16 h17
M  ZZC  17 h18
M  ZZC  18 c1
M  ZZC  19 h19
M  ZZC  20 h20
M  ZZC  21 h21
M  ZZC  22 c4
M  ZZC  23 h15
M  ZZC  24 h16
M  ZZC  25 n1
M  ZZC  26 h14
M  ZZC  27 c5
M  ZZC  28 c6
M  ZZC  29 h13
M  ZZC  30 c7
M  ZZC  31 h12
M  ZZC  32 c8
M  ZZC  33 c9
M  ZZC  34 h11
M  ZZC  35 n2
M  ZZC  36 c10
M  ZZC  37 o1
M  ZZC  38 n3
M  ZZC  39 c11
M  ZZC  40 h10
M  ZZC  41 h8
M  ZZC  42 h9
M  ZZC  43 c12
M  ZZC  44 h5
M  ZZC  45 h6
M  ZZC  46 h7
M  ZZM   1 11
M  ZZI   1 90
M  ZZM   2 37
M  ZZI   2 124
M  ZZM   3 37
M  ZZI   3 125
M  ZZM   4 5
M  ZZI   4 1
M  ZZM   5 37
M  ZZI   5 125
M  ZZM   6 5
M  ZZI   6 1
M  ZZM   7 37
M  ZZI   7 125
M  ZZM   8 5
M  ZZI   8 1
M  ZZM   9 37
M  ZZI   9 124
M  ZZM  10 37
M  ZZI  10 125
M  ZZM  11 5
M  ZZI  11 1
M  ZZM  12 6
M  ZZI  12 59
M  ZZM  13 1
M  ZZI  13 113
M  ZZM  14 5
M  ZZI  14 1
M  ZZM  15 1
M  ZZI  15 112
M  ZZM  16 5
M  ZZI  16 1
M  ZZM  17 5
M  ZZI  17 1
M  ZZM  18 1
M  ZZI  18 111
M  ZZM  19 5
M  ZZI  19 1
M  ZZM  20 5
M  ZZI  20 1
M  ZZM  21 5
M  ZZI  21 1
M  ZZM  22 1
M  ZZI  22 112
M  ZZM  23 5
M  ZZI  23 1
M  ZZM  24 5
M  ZZI  24 1
M  ZZM  25 40
M  ZZI  25 194
M  ZZM  26 28
M  ZZI  26 11
M  ZZM  27 37
M  ZZI  27 124
M  ZZM  28 37
M  ZZI  28 125
M  ZZM  29 5
M  ZZI  29 1
M  ZZM  30 37
M  ZZI  30 125
M  ZZM  31 5
M  ZZI  31 1
M  ZZM  32 37
M  ZZI  32 124
M  ZZM  33 37
M  ZZI  33 125
M  ZZM  34 5
M  ZZI  34 1
M  ZZM  35 38
M  ZZI  35 223
M  ZZM  36 3
M  ZZI  36 121
M  ZZM  37 7
M  ZZI  37 81
M  ZZM  38 10
M  ZZI  38 192
M  ZZM  39 1
M  ZZI  39 111
M  ZZM  40 5
M  ZZI  40 1
M  ZZM  41 5
M  ZZI  41 1
M  ZZM  42 5
M  ZZI  42 1
M  ZZM  43 1
M  ZZI  43 111
M  ZZM  44 5
M  ZZI  44 1
M  ZZM  45 5
M  ZZI  45 1
M  ZZM  46 5
M  ZZI  46 1
M  END
> <NAME>
Z1374912356

> <Score>
-27.898318

> <Natom>
46

> <Nflex>
5

> <Hbond>
-3.844566

> <Hphob>
-7.848049

> <VwInt>
-28.867339

> <Eintl>
7.749588

> <Dsolv>
11.544283

> <SolEl>
6.508718

> <mfScore>
-91.632198

> <RecConf>
1

> <molLogP>
3.300888

$$$$
Z240995712
  MOLSOFT 11211612053D

 46 49  0  0  1  0  0  0  0  0999 V2000
  -32.2339   11.8264   73.0688 F   0  0  0
  -32.7614   11.3642   71.9249 C   0  0  0
  -33.6128   10.2838   71.9568 C   0  0  0
  -33.8510    9.8106   72.9035 H   0  0  0
  -34.1598    9.8133   70.7803 C   0  0  0
  -34.8289    8.9579   70.8177 H   0  0  0
  -33.8544   10.4169   69.5658 C   0  0  0
  -32.9782   11.4997   69.5586 C   0  0  0
  -32.6940   11.9848   68.6288 H   0  0  0
  -32.4362   11.9724   70.7358 C   0  0  0
  -31.7484   12.8104   70.7280 H   0  0  0
  -34.4372    9.8639   68.2867 C   0  0  1
  -35.5032    9.6609   68.4308 H   0  0  0
  -34.3484   10.8465   67.2525 O   0  0  0
  -34.7908   11.6520   67.5805 H   0  0  0
  -33.6943    8.5821   67.8817 C   0  0  0
  -32.6222    8.7795   67.7882 H   0  0  0
  -33.7940    7.7975   68.6370 H   0  0  0
  -34.1453    8.0310   66.6014 N   0  0  0
  -33.4364    8.1199   65.4294 C   0  0  0
  -32.1785    8.6127   65.1244 C   0  0  0
  -31.5097    9.0244   65.8729 H   0  0  0
  -31.7957    8.5369   63.8021 C   0  0  0
  -30.8076    8.8726   63.5069 H   0  0  0
  -32.6448    8.0386   62.8408 C   0  0  0
  -32.3181    8.0075   61.8086 H   0  0  0
  -33.8975    7.5651   63.1585 C   0  0  0
  -34.5569    7.1773   62.3958 H   0  0  0
  -34.2840    7.5858   64.4824 C   0  0  0
  -35.4424    7.1276   65.0502 N   0  0  0
  -35.3049    7.3231   66.3453 C   0  0  0
  -36.2834    6.8545   67.3673 C   0  0  0
  -36.7635    7.7252   67.8080 H   0  0  0
  -37.0835    6.2442   66.9349 H   0  0  0
  -35.6203    6.1499   68.4310 O   0  0  0
  -35.2341    4.8314   68.1569 C   0  0  0
  -35.2691    4.2230   66.9069 C   0  0  0
  -35.6331    4.7296   66.0222 H   0  0  0
  -34.8079    2.9304   66.7635 C   0  0  0
  -34.8195    2.4621   65.7858 H   0  0  0
  -34.3327    2.2316   67.8544 C   0  0  0
  -33.9690    1.2167   67.7360 H   0  0  0
  -34.3233    2.8225   69.0990 C   0  0  0
  -33.9581    2.2698   69.9587 H   0  0  0
  -34.7682    4.1206   69.2459 C   0  0  0
  -34.7480    4.5870   70.2254 H   0  0  0
  2  1  1
  2  3  2
  2 10  1
  3  4  1
  3  5  1
  5  6  1
  5  7  2
  7  8  1
 12  7  1
  8  9  1
  8 10  2
 10 11  1
 12 13  1
 12 14  1
 12 16  1
 14 15  1
 16 17  1
 16 18  1
 16 19  1
 19 20  1
 19 31  1
 20 21  1
 20 29  2
 21 22  1
 21 23  2
 23 24  1
 23 25  1
 25 26  1
 25 27  2
 27 28  1
 27 29  1
 29 30  1
 30 31  2
 31 32  1
 32 33  1
 32 34  1
 32 35  1
 35 36  1
 36 37  1
 36 45  2
 37 38  1
 37 39  2
 39 40  1
 39 41  1
 41 42  1
 41 43  2
 43 44  1
 43 45  1
 45 46  1
M  ZZC   1 f1
M  ZZC   2 c20
M  ZZC   3 c19
M  ZZC   4 h4
M  ZZC   5 c18
M  ZZC   6 h5
M  ZZC   7 c17
M  ZZC   8 c22
M  ZZC   9 h2
M  ZZC  10 c21
M  ZZC  11 h3
M  ZZC  12 c16
M  ZZC  13 h19
M  ZZC  14 o2
M  ZZC  15 h1
M  ZZC  16 c15
M  ZZC  17 h6
M  ZZC  18 h7
M  ZZC  19 n2
M  ZZC  20 c14
M  ZZC  21 c13
M  ZZC  22 h8
M  ZZC  23 c12
M  ZZC  24 h9
M  ZZC  25 c11
M  ZZC  26 h10
M  ZZC  27 c10
M  ZZC  28 h11
M  ZZC  29 c9
M  ZZC  30 n1
M  ZZC  31 c8
M  ZZC  32 c7
M  ZZC  33 h12
M  ZZC  34 h13
M  ZZC  35 o1
M  ZZC  36 c4
M  ZZC  37 c3
M  ZZC  38 h16
M  ZZC  39 c2
M  ZZC  40 h17
M  ZZC  41 c1
M  ZZC  42 h18
M  ZZC  43 c6
M  ZZC  44 h14
M  ZZC  45 c5
M  ZZC  46 h15
M  ZZM   1 11
M  ZZI   1 90
M  ZZM   2 37
M  ZZI   2 124
M  ZZM   3 37
M  ZZI   3 125
M  ZZM   4 5
M  ZZI   4 1
M  ZZM   5 37
M  ZZI   5 125
M  ZZM   6 5
M  ZZI   6 1
M  ZZM   7 37
M  ZZI   7 124
M  ZZM   8 37
M  ZZI   8 125
M  ZZM   9 5
M  ZZI   9 1
M  ZZM  10 37
M  ZZI  10 125
M  ZZM  11 5
M  ZZI  11 1
M  ZZM  12 1
M  ZZI  12 113
M  ZZM  13 5
M  ZZI  13 1
M  ZZM  14 6
M  ZZI  14 60
M  ZZM  15 21
M  ZZI  15 20
M  ZZM  16 1
M  ZZI  16 112
M  ZZM  17 5
M  ZZI  17 1
M  ZZM  18 5
M  ZZI  18 1
M  ZZM  19 39
M  ZZI  19 215
M  ZZM  20 63
M  ZZI  20 104
M  ZZM  21 37
M  ZZI  21 125
M  ZZM  22 5
M  ZZI  22 1
M  ZZM  23 37
M  ZZI  23 125
M  ZZM  24 5
M  ZZI  24 1
M  ZZM  25 37
M  ZZI  25 125
M  ZZM  26 5
M  ZZI  26 1
M  ZZM  27 37
M  ZZI  27 125
M  ZZM  28 5
M  ZZI  28 1
M  ZZM  29 64
M  ZZI  29 105
M  ZZM  30 66
M  ZZI  30 222
M  ZZM  31 63
M  ZZI  31 104
M  ZZM  32 1
M  ZZI  32 112
M  ZZM  33 5
M  ZZI  33 1
M  ZZM  34 5
M  ZZI  34 1
M  ZZM  35 6
M  ZZI  35 59
M  ZZM  36 37
M  ZZI  36 124
M  ZZM  37 37
M  ZZI  37 125
M  ZZM  38 5
M  ZZI  38 1
M  ZZM  39 37
M  ZZI  39 125
M  ZZM  40 5
M  ZZI  40 1
M  ZZM  41 37
M  ZZI  41 125
M  ZZM  42 5
M  ZZI  42 1
M  ZZM  43 37
M  ZZI  43 125
M  ZZM  44 5
M  ZZI  44 1
M  ZZM  45 37
M  ZZI  45 125
M  ZZM  46 5
M  ZZI  46 1
M  END
> <NAME>
Z240995712

> <Score>
-27.677649

> <Natom>
46

> <Nflex>
7

> <Hbond>
-3.317725

> <Hphob>
-6.978644

> <VwInt>
-30.257104

> <Eintl>
8.978469

> <Dsolv>
10.822458

> <SolEl>
5.048708

> <mfScore>
-104.676595

> <RecConf>
1

> <molLogP>
4.18643

$$$$
Z53061033
  MOLSOFT 11211612053D

 46 49  0  0  1  0  0  0  0  0999 V2000
  -36.2324    5.8024   65.2913 O   0  0  0
  -35.5083    5.8741   66.2799 C   0  0  0
  -34.8400    7.1983   66.6674 C   0  0  1
  -34.3275    7.0390   67.6193 H   0  0  0
  -33.7846    7.6129   65.6559 C   0  0  0
  -34.0045    7.5988   64.2816 C   0  0  0
  -34.9627    7.3010   63.8709 H   0  0  0
  -33.0048    7.9565   63.4014 C   0  0  0
  -33.1829    7.9076   62.3331 H   0  0  0
  -31.7766    8.3683   63.8675 C   0  0  0
  -30.9945    8.6493   63.1694 H   0  0  0
  -31.5470    8.4106   65.2243 C   0  0  0
  -30.5812    8.7319   65.6007 H   0  0  0
  -32.5351    8.0271   66.1060 C   0  0  0
  -32.3177    8.0613   67.1693 H   0  0  0
  -35.9280    8.1787   66.8914 N   0  0  0
  -36.6410    8.0720   66.1659 H   0  0  0
  -35.5190    9.5871   66.9204 C   0  0  0
  -36.4443   10.1518   67.0171 H   0  0  0
  -35.0915    9.8793   65.9562 H   0  0  0
  -34.6321   10.0273   68.0588 C   0  0  0
  -34.7551    9.5187   69.3450 C   0  0  0
  -35.4766    8.7393   69.5582 H   0  0  0
  -33.9729   10.0024   70.3765 C   0  0  0
  -34.0816    9.5887   71.3744 H   0  0  0
  -33.0685   11.0204   70.1525 C   0  0  0
  -32.4637   11.4077   70.9666 H   0  0  0
  -32.9442   11.5488   68.8862 C   0  0  0
  -32.2434   12.3539   68.6915 H   0  0  0
  -33.7166   11.0505   67.8606 C   0  0  0
  -33.5687   11.5850   66.6388 F   0  0  0
  -35.2685    4.6925   67.0888 C   0  0  0
  -35.0903    3.4350   66.5512 C   0  0  0
  -35.0758    3.0912   65.5273 H   0  0  0
  -34.9080    2.5523   67.5729 N   0  0  0
  -34.7883    1.5537   67.4612 H   0  0  0
  -34.9857    3.1962   68.7757 C   0  0  0
  -35.2248    4.5368   68.5123 C   0  0  0
  -35.4096    5.3892   69.5952 C   0  0  0
  -35.6457    6.4362   69.4542 H   0  0  0
  -35.3114    4.8842   70.8753 C   0  0  0
  -35.4538    5.5494   71.7212 H   0  0  0
  -35.0460    3.5515   71.1009 C   0  0  0
  -34.9794    3.1829   72.1197 H   0  0  0
  -34.8825    2.6746   70.0510 C   0  0  0
  -34.6954    1.6197   70.2273 H   0  0  0
  2  1  2
  3  2  1
  2 32  1
  3  4  1
  3  5  1
  3 16  1
  5  6  2
  5 14  1
  6  7  1
  6  8  1
  8  9  1
  8 10  2
 10 11  1
 10 12  1
 12 13  1
 12 14  2
 14 15  1
 16 17  1
 16 18  1
 18 19  1
 18 20  1
 18 21  1
 21 22  2
 21 30  1
 22 23  1
 22 24  1
 24 25  1
 24 26  2
 26 27  1
 26 28  1
 28 29  1
 28 30  2
 30 31  1
 32 33  2
 32 38  1
 33 34  1
 33 35  1
 35 36  1
 35 37  1
 37 38  2
 37 45  1
 38 39  1
 39 40  1
 39 41  2
 41 42  1
 41 43  1
 43 44  1
 43 45  2
 45 46  1
M  ZZC   1 o1
M  ZZC   2 c8
M  ZZC   3 c7
M  ZZC   4 h19
M  ZZC   5 c4
M  ZZC   6 c3
M  ZZC   7 h15
M  ZZC   8 c2
M  ZZC   9 h16
M  ZZC  10 c1
M  ZZC  11 h17
M  ZZC  12 c6
M  ZZC  13 h13
M  ZZC  14 c5
M  ZZC  15 h14
M  ZZC  16 n2
M  ZZC  17 h7
M  ZZC  18 c17
M  ZZC  19 h5
M  ZZC  20 h6
M  ZZC  21 c18
M  ZZC  22 c19
M  ZZC  23 h4
M  ZZC  24 c20
M  ZZC  25 h3
M  ZZC  26 c21
M  ZZC  27 h2
M  ZZC  28 c22
M  ZZC  29 h1
M  ZZC  30 c23
M  ZZC  31 f1
M  ZZC  32 c9
M  ZZC  33 c10
M  ZZC  34 h12
M  ZZC  35 n1
M  ZZC  36 h18
M  ZZC  37 c11
M  ZZC  38 c12
M  ZZC  39 c13
M  ZZC  40 h11
M  ZZC  41 c14
M  ZZC  42 h10
M  ZZC  43 c15
M  ZZC  44 h9
M  ZZC  45 c16
M  ZZC  46 h8
M  ZZM   1 7
M  ZZI   1 80
M  ZZM   2 3
M  ZZI   2 122
M  ZZM   3 1
M  ZZI   3 113
M  ZZM   4 5
M  ZZI   4 1
M  ZZM   5 37
M  ZZI   5 124
M  ZZM   6 37
M  ZZI   6 125
M  ZZM   7 5
M  ZZI   7 1
M  ZZM   8 37
M  ZZI   8 125
M  ZZM   9 5
M  ZZI   9 1
M  ZZM  10 37
M  ZZI  10 125
M  ZZM  11 5
M  ZZI  11 1
M  ZZM  12 37
M  ZZI  12 125
M  ZZM  13 5
M  ZZI  13 1
M  ZZM  14 37
M  ZZI  14 125
M  ZZM  15 5
M  ZZI  15 1
M  ZZM  16 8
M  ZZI  16 214
M  ZZM  17 23
M  ZZI  17 10
M  ZZM  18 1
M  ZZI  18 112
M  ZZM  19 5
M  ZZI  19 1
M  ZZM  20 5
M  ZZI  20 1
M  ZZM  21 37
M  ZZI  21 124
M  ZZM  22 37
M  ZZI  22 125
M  ZZM  23 5
M  ZZI  23 1
M  ZZM  24 37
M  ZZI  24 125
M  ZZM  25 5
M  ZZI  25 1
M  ZZM  26 37
M  ZZI  26 125
M  ZZM  27 5
M  ZZI  27 1
M  ZZM  28 37
M  ZZI  28 125
M  ZZM  29 5
M  ZZI  29 1
M  ZZM  30 37
M  ZZI  30 124
M  ZZM  31 11
M  ZZI  31 90
M  ZZM  32 64
M  ZZI  32 105
M  ZZM  33 63
M  ZZI  33 104
M  ZZM  34 5
M  ZZI  34 1
M  ZZM  35 39
M  ZZI  35 215
M  ZZM  36 23
M  ZZI  36 10
M  ZZM  37 63
M  ZZI  37 104
M  ZZM  38 64
M  ZZI  38 105
M  ZZM  39 37
M  ZZI  39 125
M  ZZM  40 5
M  ZZI  40 1
M  ZZM  41 37
M  ZZI  41 125
M  ZZM  42 5
M  ZZI  42 1
M  ZZM  43 37
M  ZZI  43 125
M  ZZM  44 5
M  ZZI  44 1
M  ZZM  45 37
M  ZZI  45 125
M  ZZM  46 5
M  ZZI  46 1
M  END
> <NAME>
Z53061033

> <Score>
-27.304277

> <Natom>
46

> <Nflex>
5

> <Hbond>
-2.609193

> <Hphob>
-7.664165

> <VwInt>
-31.558697

> <Eintl>
9.326196

> <Dsolv>
10.68354

> <SolEl>
7.542445

> <mfScore>
-87.168921

> <RecConf>
1

> <molLogP>
3.696844

$$$$
Z16042889
  MOLSOFT 11211612053D

 46 48  0  0  0  0  0  0  0  0999 V2000
  -36.4865    5.3631   69.5432 H   0  0  0
  -35.9208    4.5209   69.1566 C   0  0  0
  -35.3965    4.5342   67.8697 C   0  0  0
  -34.6810    3.4309   67.4253 C   0  0  0
  -34.2706    3.4086   66.4197 H   0  0  0
  -34.4776    2.3447   68.2525 C   0  0  0
  -33.9140    1.4893   67.8936 H   0  0  0
  -34.9887    2.3465   69.5326 C   0  0  0
  -34.8297    1.4915   70.1821 H   0  0  0
  -35.7081    3.4338   69.9838 C   0  0  0
  -36.1124    3.4322   70.9915 H   0  0  0
  -35.5390    5.6909   66.9997 C   0  0  0
  -36.4904    6.6877   67.1069 C   0  0  0
  -37.3309    6.8356   67.7687 H   0  0  0
  -36.1573    7.5996   66.1490 N   0  0  0
  -36.8068    8.8469   65.9506 N   0  0  0
  -36.5450    9.2847   65.0686 H   0  0  0
  -37.8208    8.7482   65.9188 H   0  0  0
  -35.0451    7.1213   65.5006 C   0  0  0
  -34.6730    5.9506   65.9637 N   0  0  0
  -34.2061    8.0232   64.2685 S   0  0  0
  -32.7615    8.5676   65.2460 C   0  0  0
  -31.9436    8.8281   64.5677 H   0  0  0
  -32.4055    7.7694   65.9050 H   0  0  0
  -33.1393    9.7951   66.0531 C   0  0  0
  -32.9870   10.9186   65.6010 O   0  0  0
  -33.7066    9.5320   67.2813 N   0  0  0
  -33.7525    8.5821   67.6357 H   0  0  0
  -34.2853   10.5811   68.0942 C   0  0  0
  -34.3073   11.5203   67.5322 H   0  0  0
  -35.3278   10.3115   68.2912 H   0  0  0
  -33.5419   10.7634   69.3851 C   0  0  0
  -33.6493    9.8254   70.4059 C   0  0  0
  -34.4546    8.7120   70.1377 O   0  0  0
  -34.5089    7.7649   71.2089 C   0  0  0
  -35.2121    6.9559   70.9836 H   0  0  0
  -34.8764    8.2853   72.0954 H   0  0  0
  -33.5136    7.3762   71.4473 H   0  0  0
  -32.9701   10.0186   71.6039 C   0  0  0
  -33.0310    9.3139   72.4242 H   0  0  0
  -32.1804   11.1367   71.7743 C   0  0  0
  -31.6459   11.2876   72.7070 H   0  0  0
  -32.0591   12.0589   70.7589 C   0  0  0
  -31.4222   12.9265   70.8929 H   0  0  0
  -32.7358   11.8771   69.5717 C   0  0  0
  -32.6238   12.6145   68.7818 H   0  0  0
  2  1  1
  2  3  1
  2 10  2
  3  4  2
  3 12  1
  4  5  1
  4  6  1
  6  7  1
  6  8  2
  8  9  1
  8 10  1
 10 11  1
 12 13  2
 12 20  1
 13 14  1
 13 15  1
 15 16  1
 15 19  1
 16 17  1
 16 18  1
 19 20  2
 19 21  1
 21 22  1
 22 23  1
 22 24  1
 22 25  1
 25 26  2
 25 27  1
 27 28  1
 27 29  1
 29 30  1
 29 31  1
 29 32  1
 32 33  2
 32 45  1
 33 34  1
 33 39  1
 34 35  1
 35 36  1
 35 37  1
 35 38  1
 39 40  1
 39 41  2
 41 42  1
 41 43  1
 43 44  1
 43 45  2
 45 46  1
M  ZZC   1 h1
M  ZZC   2 c19
M  ZZC   3 c14
M  ZZC   4 c15
M  ZZC   5 h5
M  ZZC   6 c16
M  ZZC   7 h4
M  ZZC   8 c17
M  ZZC   9 h3
M  ZZC  10 c18
M  ZZC  11 h2
M  ZZC  12 c12
M  ZZC  13 c13
M  ZZC  14 h8
M  ZZC  15 n3
M  ZZC  16 n4
M  ZZC  17 h6
M  ZZC  18 h7
M  ZZC  19 c11
M  ZZC  20 n2
M  ZZC  21 s1
M  ZZC  22 c10
M  ZZC  23 h10
M  ZZC  24 h9
M  ZZC  25 c9
M  ZZC  26 o2
M  ZZC  27 n1
M  ZZC  28 h11
M  ZZC  29 c8
M  ZZC  30 h12
M  ZZC  31 h13
M  ZZC  32 c7
M  ZZC  33 c2
M  ZZC  34 o1
M  ZZC  35 c1
M  ZZC  36 h18
M  ZZC  37 h19
M  ZZC  38 h20
M  ZZC  39 c3
M  ZZC  40 h17
M  ZZC  41 c4
M  ZZC  42 h16
M  ZZC  43 c5
M  ZZC  44 h15
M  ZZC  45 c6
M  ZZC  46 h14
M  ZZM   1 5
M  ZZI   1 1
M  ZZM   2 37
M  ZZI   2 125
M  ZZM   3 37
M  ZZI   3 124
M  ZZM   4 37
M  ZZI   4 125
M  ZZM   5 5
M  ZZI   5 1
M  ZZM   6 37
M  ZZI   6 125
M  ZZM   7 5
M  ZZI   7 1
M  ZZM   8 37
M  ZZI   8 125
M  ZZM   9 5
M  ZZI   9 1
M  ZZM  10 37
M  ZZI  10 125
M  ZZM  11 5
M  ZZI  11 1
M  ZZM  12 64
M  ZZI  12 105
M  ZZM  13 63
M  ZZI  13 104
M  ZZM  14 5
M  ZZI  14 1
M  ZZM  15 39
M  ZZI  15 215
M  ZZM  16 8
M  ZZI  16 213
M  ZZM  17 23
M  ZZI  17 10
M  ZZM  18 23
M  ZZI  18 10
M  ZZM  19 63
M  ZZI  19 104
M  ZZM  20 66
M  ZZI  20 222
M  ZZM  21 15
M  ZZI  21 240
M  ZZM  22 1
M  ZZI  22 112
M  ZZM  23 5
M  ZZI  23 1
M  ZZM  24 5
M  ZZI  24 1
M  ZZM  25 3
M  ZZI  25 121
M  ZZM  26 7
M  ZZI  26 81
M  ZZM  27 10
M  ZZI  27 211
M  ZZM  28 28
M  ZZI  28 11
M  ZZM  29 1
M  ZZI  29 112
M  ZZM  30 5
M  ZZI  30 1
M  ZZM  31 5
M  ZZI  31 1
M  ZZM  32 37
M  ZZI  32 124
M  ZZM  33 37
M  ZZI  33 124
M  ZZM  34 6
M  ZZI  34 59
M  ZZM  35 1
M  ZZI  35 111
M  ZZM  36 5
M  ZZI  36 1
M  ZZM  37 5
M  ZZI  37 1
M  ZZM  38 5
M  ZZI  38 1
M  ZZM  39 37
M  ZZI  39 125
M  ZZM  40 5
M  ZZI  40 1
M  ZZM  41 37
M  ZZI  41 125
M  ZZM  42 5
M  ZZI  42 1
M  ZZM  43 37
M  ZZI  43 125
M  ZZM  44 5
M  ZZI  44 1
M  ZZM  45 37
M  ZZI  45 125
M  ZZM  46 5
M  ZZI  46 1
M  END
> <NAME>
Z16042889

> <Score>
-27.277944

> <Natom>
46

> <Nflex>
6

> <Hbond>
-4.276164

> <Hphob>
-5.914733

> <VwInt>
-32.996946

> <Eintl>
9.597664

> <Dsolv>
16.42009

> <SolEl>
6.947725

> <mfScore>
-90.018181

> <RecConf>
1

> <molLogP>
3.047344

$$$$
Z1252691336
  MOLSOFT 11211612053D

 46 47  0  0  0  0  0  0  0  0999 V2000
  -34.4989   11.0043   69.0586 H   0  0  0
  -34.7117   10.0784   68.5169 C   0  0  0
  -34.1504    9.2760   69.0042 H   0  0  0
  -35.7742    9.8738   68.6465 H   0  0  0
  -34.3207   10.2193   67.0471 C   0  0  1
  -34.9107   11.0204   66.5951 H   0  0  0
  -32.8524   10.6472   67.0089 C   0  0  0
  -32.7235   11.6112   67.5122 H   0  0  0
  -32.1961    9.9272   67.5123 H   0  0  0
  -32.4240   10.8157   65.6604 O   0  0  0
  -32.5029    9.5580   64.9843 C   0  0  0
  -32.1032    9.7014   63.9761 H   0  0  0
  -31.8594    8.8268   65.4886 H   0  0  0
  -33.9539    9.0898   64.9030 C   0  0  1
  -34.5146    9.8521   64.3482 H   0  0  0
  -33.9835    7.7860   64.1016 C   0  0  0
  -34.9966    7.5246   63.7894 H   0  0  0
  -33.5690    6.9506   64.6748 H   0  0  0
  -33.3939    7.8765   63.1842 H   0  0  0
  -34.5435    8.9688   66.2677 N   0  0  0
  -35.9788    8.5781   66.2030 C   0  0  0
  -36.4526    8.8750   65.2613 H   0  0  0
  -36.5807    9.0355   66.9892 H   0  0  0
  -36.0774    7.0724   66.3834 C   0  0  0
  -36.4533    6.3467   65.4729 O   0  0  0
  -35.7076    6.6709   67.6572 N   0  0  0
  -35.5499    7.3891   68.3558 H   0  0  0
  -35.4970    5.3415   68.0913 C   0  0  0
  -35.2412    5.1413   69.4442 C   0  0  0
  -34.9725    3.8547   69.8921 C   0  0  0
  -34.7414    3.6606   70.9330 H   0  0  0
  -34.9647    2.7919   69.0124 C   0  0  0
  -34.7488    1.7899   69.3700 H   0  0  0
  -35.2204    3.0004   67.6757 C   0  0  0
  -35.1981    2.1669   66.9826 H   0  0  0
  -35.4931    4.2685   67.2123 C   0  0  0
  -35.6721    4.3999   66.1516 H   0  0  0
  -35.1975    6.5740   70.5182 S   0  0  0
  -35.9859    5.9687   72.0543 C   0  0  0
  -35.8420    6.7290   72.8278 H   0  0  0
  -35.5249    5.0503   72.4250 H   0  0  0
  -37.4704    5.7550   71.8514 C   0  0  0
  -37.9475    4.6925   71.4869 O   0  0  0
  -38.2426    6.8560   72.1159 N   0  0  0
  -39.2477    6.7918   71.9925 H   0  0  0
  -37.8502    7.7663   72.3414 H   0  0  0
  2  1  1
  2  3  1
  2  4  1
  5  2  1
  5  6  1
  5  7  1
  5 20  1
  7  8  1
  7  9  1
  7 10  1
 10 11  1
 11 12  1
 11 13  1
 14 11  1
 14 15  1
 14 16  1
 14 20  1
 16 17  1
 16 18  1
 16 19  1
 20 21  1
 21 22  1
 21 23  1
 21 24  1
 24 25  2
 24 26  1
 26 27  1
 26 28  1
 28 29  1
 28 36  2
 29 30  2
 29 38  1
 30 31  1
 30 32  1
 32 33  1
 32 34  2
 34 35  1
 34 36  1
 36 37  1
 38 39  1
 39 40  1
 39 41  1
 39 42  1
 42 43  2
 42 44  1
 44 45  1
 44 46  1
M  ZZC   1 h1
M  ZZC   2 c16
M  ZZC   3 h2
M  ZZC   4 h3
M  ZZC   5 c5
M  ZZC   6 h22
M  ZZC   7 c4
M  ZZC   8 h15
M  ZZC   9 h16
M  ZZC  10 o1
M  ZZC  11 c3
M  ZZC  12 h17
M  ZZC  13 h18
M  ZZC  14 c2
M  ZZC  15 h23
M  ZZC  16 c1
M  ZZC  17 h19
M  ZZC  18 h20
M  ZZC  19 h21
M  ZZC  20 n1
M  ZZC  21 c6
M  ZZC  22 h13
M  ZZC  23 h14
M  ZZC  24 c7
M  ZZC  25 o2
M  ZZC  26 n2
M  ZZC  27 h12
M  ZZC  28 c8
M  ZZC  29 c13
M  ZZC  30 c12
M  ZZC  31 h8
M  ZZC  32 c11
M  ZZC  33 h9
M  ZZC  34 c10
M  ZZC  35 h10
M  ZZC  36 c9
M  ZZC  37 h11
M  ZZC  38 s1
M  ZZC  39 c14
M  ZZC  40 h6
M  ZZC  41 h7
M  ZZC  42 c15
M  ZZC  43 o3
M  ZZC  44 n3
M  ZZC  45 h4
M  ZZC  46 h5
M  ZZM   1 5
M  ZZI   1 1
M  ZZM   2 1
M  ZZI   2 111
M  ZZM   3 5
M  ZZI   3 1
M  ZZM   4 5
M  ZZI   4 1
M  ZZM   5 1
M  ZZI   5 113
M  ZZM   6 5
M  ZZI   6 1
M  ZZM   7 1
M  ZZI   7 112
M  ZZM   8 5
M  ZZI   8 1
M  ZZM   9 5
M  ZZI   9 1
M  ZZM  10 6
M  ZZI  10 65
M  ZZM  11 1
M  ZZI  11 112
M  ZZM  12 5
M  ZZI  12 1
M  ZZM  13 5
M  ZZI  13 1
M  ZZM  14 1
M  ZZI  14 113
M  ZZM  15 5
M  ZZI  15 1
M  ZZM  16 1
M  ZZI  16 111
M  ZZM  17 5
M  ZZI  17 1
M  ZZM  18 5
M  ZZI  18 1
M  ZZM  19 5
M  ZZI  19 1
M  ZZM  20 8
M  ZZI  20 216
M  ZZM  21 1
M  ZZI  21 112
M  ZZM  22 5
M  ZZI  22 1
M  ZZM  23 5
M  ZZI  23 1
M  ZZM  24 3
M  ZZI  24 121
M  ZZM  25 7
M  ZZI  25 81
M  ZZM  26 10
M  ZZI  26 191
M  ZZM  27 28
M  ZZI  27 11
M  ZZM  28 37
M  ZZI  28 124
M  ZZM  29 37
M  ZZI  29 124
M  ZZM  30 37
M  ZZI  30 125
M  ZZM  31 5
M  ZZI  31 1
M  ZZM  32 37
M  ZZI  32 125
M  ZZM  33 5
M  ZZI  33 1
M  ZZM  34 37
M  ZZI  34 125
M  ZZM  35 5
M  ZZI  35 1
M  ZZM  36 37
M  ZZI  36 125
M  ZZM  37 5
M  ZZI  37 1
M  ZZM  38 15
M  ZZI  38 240
M  ZZM  39 1
M  ZZI  39 112
M  ZZM  40 5
M  ZZI  40 1
M  ZZM  41 5
M  ZZI  41 1
M  ZZM  42 3
M  ZZI  42 121
M  ZZM  43 7
M  ZZI  43 81
M  ZZM  44 10
M  ZZI  44 212
M  ZZM  45 28
M  ZZI  45 11
M  ZZM  46 28
M  ZZI  46 11
M  END
> <NAME>
Z1252691336

> <Score>
-27.110055

> <Natom>
46

> <Nflex>
4

> <Hbond>
-4.356107

> <Hphob>
-5.989233

> <VwInt>
-27.245149

> <Eintl>
5.73149

> <Dsolv>
14.064187

> <SolEl>
3.364681

> <mfScore>
-86.743582

> <RecConf>
1

> <molLogP>
0.09298

$$$$
Z1297853390
  MOLSOFT 11211612053D

 46 48  0  0  1  0  0  0  0  0999 V2000
  -37.9291    6.4649   66.2034 H   0  0  0
  -37.0232    6.1953   65.9679 O   0  0  0
  -36.2362    6.3832   67.1454 C   0  0  1
  -36.8897    6.7834   67.9296 H   0  0  0
  -35.6882    5.0502   67.5834 C   0  0  0
  -35.6548    4.7242   68.9305 C   0  0  0
  -36.0406    5.4158   69.6737 H   0  0  0
  -35.1278    3.5209   69.3489 C   0  0  0
  -35.1167    3.2856   70.4087 H   0  0  0
  -34.6182    2.6182   68.4328 C   0  0  0
  -34.0711    1.3070   68.9020 C   0  0  0
  -33.6184    0.7489   68.0774 H   0  0  0
  -34.8755    0.7034   69.3306 H   0  0  0
  -33.2996    1.4685   69.6598 H   0  0  0
  -34.6529    2.9365   67.0864 C   0  0  0
  -34.2704    2.2413   66.3458 H   0  0  0
  -35.1789    4.1396   66.6676 C   0  0  0
  -35.1918    4.3670   65.6072 H   0  0  0
  -35.0968    7.3599   66.8455 C   0  0  0
  -34.6046    7.0459   65.9191 H   0  0  0
  -34.3545    7.3098   67.6482 H   0  0  0
  -35.6235    8.7332   66.7053 N   0  0  0
  -36.2592    8.7584   65.9071 H   0  0  0
  -34.5652    9.7547   66.5373 C   0  0  2
  -35.0407   10.5602   65.9704 H   0  0  0
  -33.4029    9.2879   65.6781 C   0  0  0
  -33.5873    9.0788   64.3135 C   0  0  0
  -34.5458    9.2801   63.8462 H   0  0  0
  -32.5554    8.5702   63.5521 C   0  0  0
  -32.6848    8.3681   62.4936 H   0  0  0
  -31.3570    8.3018   64.1704 C   0  0  0
  -30.5188    7.9016   63.6092 H   0  0  0
  -31.2494    8.5447   65.5219 C   0  0  0
  -30.3197    8.3411   66.0433 H   0  0  0
  -32.2324    9.0249   66.2897 N   0  0  0
  -34.1518   10.4156   67.8443 C   0  0  0
  -34.3207    9.8144   69.0900 C   0  0  0
  -34.7892    8.8419   69.1808 H   0  0  0
  -33.8971   10.4332   70.2494 C   0  0  0
  -34.0315    9.9379   71.2059 H   0  0  0
  -33.3107   11.6782   70.1988 C   0  0  0
  -32.9812   12.1680   71.1096 H   0  0  0
  -33.1547   12.3000   68.9814 C   0  0  0
  -32.6985   13.2821   68.9329 H   0  0  0
  -33.5670   11.6777   67.8216 C   0  0  0
  -33.4206   12.1988   66.8824 H   0  0  0
  2  1  1
  3  2  1
  3  4  1
  3  5  1
  3 19  1
  5  6  1
  5 17  2
  6  7  1
  6  8  2
  8  9  1
  8 10  1
 10 11  1
 10 15  2
 11 12  1
 11 13  1
 11 14  1
 15 16  1
 15 17  1
 17 18  1
 19 20  1
 19 21  1
 19 22  1
 22 23  1
 24 22  1
 24 25  1
 24 26  1
 24 36  1
 26 27  1
 26 35  2
 27 28  1
 27 29  2
 29 30  1
 29 31  1
 31 32  1
 31 33  2
 33 34  1
 33 35  1
 36 37  2
 36 45  1
 37 38  1
 37 39  1
 39 40  1
 39 41  2
 41 42  1
 41 43  1
 43 44  1
 43 45  2
 45 46  1
M  ZZC   1 h1
M  ZZC   2 o1
M  ZZC   3 c8
M  ZZC   4 h22
M  ZZC   5 c5
M  ZZC   6 c4
M  ZZC   7 h16
M  ZZC   8 c3
M  ZZC   9 h17
M  ZZC  10 c2
M  ZZC  11 c1
M  ZZC  12 h18
M  ZZC  13 h19
M  ZZC  14 h20
M  ZZC  15 c7
M  ZZC  16 h14
M  ZZC  17 c6
M  ZZC  18 h15
M  ZZC  19 c9
M  ZZC  20 h12
M  ZZC  21 h13
M  ZZC  22 n1
M  ZZC  23 h11
M  ZZC  24 c10
M  ZZC  25 h21
M  ZZC  26 c17
M  ZZC  27 c18
M  ZZC  28 h5
M  ZZC  29 c19
M  ZZC  30 h4
M  ZZC  31 c20
M  ZZC  32 h3
M  ZZC  33 c21
M  ZZC  34 h2
M  ZZC  35 n2
M  ZZC  36 c11
M  ZZC  37 c12
M  ZZC  38 h10
M  ZZC  39 c13
M  ZZC  40 h9
M  ZZC  41 c14
M  ZZC  42 h8
M  ZZC  43 c15
M  ZZC  44 h7
M  ZZC  45 c16
M  ZZC  46 h6
M  ZZM   1 21
M  ZZI   1 20
M  ZZM   2 6
M  ZZI   2 60
M  ZZM   3 1
M  ZZI   3 113
M  ZZM   4 5
M  ZZI   4 1
M  ZZM   5 37
M  ZZI   5 124
M  ZZM   6 37
M  ZZI   6 125
M  ZZM   7 5
M  ZZI   7 1
M  ZZM   8 37
M  ZZI   8 125
M  ZZM   9 5
M  ZZI   9 1
M  ZZM  10 37
M  ZZI  10 124
M  ZZM  11 1
M  ZZI  11 111
M  ZZM  12 5
M  ZZI  12 1
M  ZZM  13 5
M  ZZI  13 1
M  ZZM  14 5
M  ZZI  14 1
M  ZZM  15 37
M  ZZI  15 125
M  ZZM  16 5
M  ZZI  16 1
M  ZZM  17 37
M  ZZI  17 125
M  ZZM  18 5
M  ZZI  18 1
M  ZZM  19 1
M  ZZI  19 112
M  ZZM  20 5
M  ZZI  20 1
M  ZZM  21 5
M  ZZI  21 1
M  ZZM  22 8
M  ZZI  22 214
M  ZZM  23 23
M  ZZI  23 10
M  ZZM  24 1
M  ZZI  24 113
M  ZZM  25 5
M  ZZI  25 1
M  ZZM  26 37
M  ZZI  26 124
M  ZZM  27 37
M  ZZI  27 125
M  ZZM  28 5
M  ZZI  28 1
M  ZZM  29 37
M  ZZI  29 125
M  ZZM  30 5
M  ZZI  30 1
M  ZZM  31 37
M  ZZI  31 125
M  ZZM  32 5
M  ZZI  32 1
M  ZZM  33 37
M  ZZI  33 125
M  ZZM  34 5
M  ZZI  34 1
M  ZZM  35 38
M  ZZI  35 223
M  ZZM  36 37
M  ZZI  36 124
M  ZZM  37 37
M  ZZI  37 125
M  ZZM  38 5
M  ZZI  38 1
M  ZZM  39 37
M  ZZI  39 125
M  ZZM  40 5
M  ZZI  40 1
M  ZZM  41 37
M  ZZI  41 125
M  ZZM  42 5
M  ZZI  42 1
M  ZZM  43 37
M  ZZI  43 125
M  ZZM  44 5
M  ZZI  44 1
M  ZZM  45 37
M  ZZI  45 125
M  ZZM  46 5
M  ZZI  46 1
M  END
> <NAME>
Z1297853390

> <Score>
-27.031474

> <Natom>
46

> <Nflex>
7

> <Hbond>
-2.439056

> <Hphob>
-7.682381

> <VwInt>
-31.281495

> <Eintl>
8.950611

> <Dsolv>
9.346371

> <SolEl>
6.60341

> <mfScore>
-101.858568

> <RecConf>
1

> <molLogP>
2.773759

$$$$
Z56792186
  MOLSOFT 11211612053D

 46 49  0  0  0  0  0  0  0  0999 V2000
  -33.5505    1.0419   68.0613 O   0  0  0
  -34.0073    1.7754   68.9414 N   0  0  0
  -33.9118    1.5791   70.1568 O   0  0  0
  -34.7213    2.9715   68.5138 C   0  0  0
  -34.7329    3.3083   67.1663 C   0  0  0
  -34.2251    2.7081   66.4157 H   0  0  0
  -35.4314    4.4315   66.7723 C   0  0  0
  -35.4771    4.6808   65.7169 H   0  0  0
  -36.0962    5.1949   67.7243 C   0  0  0
  -36.0799    4.8471   69.0662 C   0  0  0
  -36.6172    5.4392   69.8020 H   0  0  0
  -35.3783    3.7307   69.4726 C   0  0  0
  -35.3710    3.4622   70.5258 H   0  0  0
  -36.9281    6.3617   67.3475 C   0  0  0
  -37.8496    6.5028   67.9349 H   0  0  0
  -36.6589    7.2478   66.4388 N   0  0  0
  -35.4374    7.0289   65.8199 N   0  0  0
  -34.8967    8.1493   65.4479 C   0  0  0
  -33.5890    8.1381   64.7789 C   0  0  0
  -33.5543    7.9918   63.4093 C   0  0  0
  -34.4598    7.8235   62.8348 H   0  0  0
  -32.3420    8.1030   62.7705 C   0  0  0
  -32.2993    8.0024   61.6938 H   0  0  0
  -31.1881    8.3334   63.4917 C   0  0  0
  -30.2368    8.4123   62.9754 H   0  0  0
  -31.2332    8.4420   64.8668 C   0  0  0
  -30.3213    8.6099   65.4313 H   0  0  0
  -32.4396    8.3413   65.5221 C   0  0  0
  -32.4750    8.4404   66.6025 H   0  0  0
  -35.5143    9.5180   65.6653 C   0  0  0
  -35.3068   10.1325   64.7845 H   0  0  0
  -36.6028    9.4587   65.7662 H   0  0  0
  -34.8837   10.1284   66.8612 C   0  0  0
  -35.1003    9.6440   68.1214 N   0  0  0
  -35.7145    8.8756   68.3577 H   0  0  0
  -34.3181   10.3447   68.9899 C   0  0  0
  -34.1374   10.2366   70.3536 C   0  0  0
  -34.6551    9.4936   70.9529 H   0  0  0
  -33.2548   11.1359   70.9180 C   0  0  0
  -33.0756   11.1040   71.9880 H   0  0  0
  -32.5929   12.0738   70.1510 C   0  0  0
  -31.8999   12.7577   70.6303 H   0  0  0
  -32.7797   12.1528   68.7848 C   0  0  0
  -32.2406   12.8745   68.1846 H   0  0  0
  -33.6636   11.2657   68.1986 C   0  0  0
  -34.0152   11.1186   66.8796 N   0  0  0
  2  1  2
  2  3  2
  2  4  1
  4  5  2
  4 12  1
  5  6  1
  5  7  1
  7  8  1
  7  9  2
  9 10  1
  9 14  1
 10 11  1
 10 12  2
 12 13  1
 14 15  1
 14 16  2
 16 17  1
 17 18  2
 18 19  1
 18 30  1
 19 20  1
 19 28  2
 20 21  1
 20 22  2
 22 23  1
 22 24  1
 24 25  1
 24 26  2
 26 27  1
 26 28  1
 28 29  1
 30 31  1
 30 32  1
 30 33  1
 33 34  1
 33 46  2
 34 35  1
 34 36  1
 36 37  1
 36 45  2
 37 38  1
 37 39  2
 39 40  1
 39 41  1
 41 42  1
 41 43  2
 43 44  1
 43 45  1
 45 46  1
M  ZZC   1 o1
M  ZZC   2 n3
M  ZZC   3 o2
M  ZZC   4 c12
M  ZZC   5 c11
M  ZZC   6 h9
M  ZZC   7 c10
M  ZZC   8 h10
M  ZZC   9 c9
M  ZZC  10 c14
M  ZZC  11 h7
M  ZZC  12 c13
M  ZZC  13 h8
M  ZZC  14 c8
M  ZZC  15 h11
M  ZZC  16 n2
M  ZZC  17 n1
M  ZZC  18 c7
M  ZZC  19 c4
M  ZZC  20 c3
M  ZZC  21 h14
M  ZZC  22 c2
M  ZZC  23 h15
M  ZZC  24 c1
M  ZZC  25 h16
M  ZZC  26 c6
M  ZZC  27 h12
M  ZZC  28 c5
M  ZZC  29 h13
M  ZZC  30 c15
M  ZZC  31 h5
M  ZZC  32 h6
M  ZZC  33 c16
M  ZZC  34 n4
M  ZZC  35 h17
M  ZZC  36 c17
M  ZZC  37 c18
M  ZZC  38 h4
M  ZZC  39 c19
M  ZZC  40 h3
M  ZZC  41 c20
M  ZZC  42 h2
M  ZZC  43 c21
M  ZZC  44 h1
M  ZZC  45 c22
M  ZZC  46 n5
M  ZZM   1 32
M  ZZI   1 73
M  ZZM   2 45
M  ZZI   2 227
M  ZZM   3 32
M  ZZI   3 73
M  ZZM   4 37
M  ZZI   4 124
M  ZZM   5 37
M  ZZI   5 125
M  ZZM   6 5
M  ZZI   6 1
M  ZZM   7 37
M  ZZI   7 125
M  ZZM   8 5
M  ZZI   8 1
M  ZZM   9 37
M  ZZI   9 124
M  ZZM  10 37
M  ZZI  10 125
M  ZZM  11 5
M  ZZI  11 1
M  ZZM  12 37
M  ZZI  12 125
M  ZZM  13 5
M  ZZI  13 1
M  ZZM  14 3
M  ZZI  14 121
M  ZZM  15 5
M  ZZI  15 1
M  ZZM  16 9
M  ZZI  16 220
M  ZZM  17 9
M  ZZI  17 220
M  ZZM  18 3
M  ZZI  18 121
M  ZZM  19 37
M  ZZI  19 124
M  ZZM  20 37
M  ZZI  20 125
M  ZZM  21 5
M  ZZI  21 1
M  ZZM  22 37
M  ZZI  22 125
M  ZZM  23 5
M  ZZI  23 1
M  ZZM  24 37
M  ZZI  24 125
M  ZZM  25 5
M  ZZI  25 1
M  ZZM  26 37
M  ZZI  26 125
M  ZZM  27 5
M  ZZI  27 1
M  ZZM  28 37
M  ZZI  28 125
M  ZZM  29 5
M  ZZI  29 1
M  ZZM  30 1
M  ZZI  30 112
M  ZZM  31 5
M  ZZI  31 1
M  ZZM  32 5
M  ZZI  32 1
M  ZZM  33 63
M  ZZI  33 104
M  ZZM  34 39
M  ZZI  34 215
M  ZZM  35 23
M  ZZI  35 10
M  ZZM  36 63
M  ZZI  36 104
M  ZZM  37 37
M  ZZI  37 125
M  ZZM  38 5
M  ZZI  38 1
M  ZZM  39 37
M  ZZI  39 125
M  ZZM  40 5
M  ZZI  40 1
M  ZZM  41 37
M  ZZI  41 125
M  ZZM  42 5
M  ZZI  42 1
M  ZZM  43 37
M  ZZI  43 125
M  ZZM  44 5
M  ZZI  44 1
M  ZZM  45 64
M  ZZI  45 105
M  ZZM  46 66
M  ZZI  46 222
M  END
> <NAME>
Z56792186

> <Score>
-26.913973

> <Natom>
46

> <Nflex>
5

> <Hbond>
-1.299616

> <Hphob>
-7.232337

> <VwInt>
-36.228217

> <Eintl>
8.153802

> <Dsolv>
9.59485

> <SolEl>
10.987575

> <mfScore>
-83.846001

> <RecConf>
1

> <molLogP>
4.420258

$$$$
Z16536715
  MOLSOFT 11211612053D

 46 49  0  0  0  0  0  0  0  0999 V2000
  -36.2450    6.6198   65.5451 O   0  0  0
  -35.7376    7.0224   66.5849 C   0  0  0
  -35.5025    6.2291   67.8223 C   0  0  0
  -35.5111    6.9059   69.0334 C   0  0  0
  -35.6962    7.9734   69.0885 H   0  0  0
  -35.2812    6.2036   70.1982 C   0  0  0
  -35.2845    6.9114   71.5175 C   0  0  0
  -34.9783    6.2329   72.3193 H   0  0  0
  -36.2872    7.2819   71.7491 H   0  0  0
  -34.5833    7.7516   71.5018 H   0  0  0
  -35.0523    4.8867   70.2160 N   0  0  0
  -35.0102    4.2372   69.0424 C   0  0  0
  -35.2289    4.8582   67.8112 C   0  0  0
  -35.1318    4.1043   66.6458 C   0  0  0
  -35.2854    4.5452   65.6674 H   0  0  0
  -34.8200    2.7648   66.6976 C   0  0  0
  -34.7468    2.1958   65.7804 H   0  0  0
  -34.6061    2.1511   67.9089 C   0  0  0
  -34.3599    1.0953   67.9551 H   0  0  0
  -34.7101    2.8874   69.0661 C   0  0  0
  -34.5398    2.4011   70.0210 H   0  0  0
  -35.2487    8.2710   66.8360 O   0  0  0
  -35.2209    9.1493   65.7067 C   0  0  0
  -34.8398    8.6351   64.8174 H   0  0  0
  -36.2196    9.5622   65.5271 H   0  0  0
  -34.2685   10.2647   66.0872 C   0  0  0
  -33.5357   10.8116   65.2775 O   0  0  0
  -34.3381   10.6121   67.4181 N   0  0  0
  -35.0005   10.1337   68.0188 H   0  0  0
  -33.4806   11.6239   67.9934 C   0  0  0
  -34.0951   12.5209   68.1098 H   0  0  0
  -32.6622   11.8691   67.3091 H   0  0  0
  -32.9250   11.1894   69.3210 C   0  0  0
  -33.0087   12.0512   70.4157 C   0  0  0
  -33.4927   13.0166   70.3086 H   0  0  0
  -32.4828   11.7081   71.6487 C   0  0  0
  -32.5497   12.3777   72.5001 H   0  0  0
  -31.8689   10.4831   71.7492 C   0  0  0
  -31.7763    9.6371   70.7016 C   0  0  0
  -32.2879    9.9547   69.4628 C   0  0  0
  -32.1860    9.2611   68.6337 H   0  0  0
  -31.1348    8.4657   71.0284 O   0  0  0
  -30.8208    8.7107   72.4126 C   0  0  0
  -29.7346    8.6642   72.5423 H   0  0  0
  -31.2696    7.9182   73.0216 H   0  0  0
  -31.2923    9.9841   72.8875 O   0  0  0
  2  1  2
  2  3  1
  2 22  1
  3  4  1
  3 13  2
  4  5  1
  4  6  2
  6  7  1
  6 11  1
  7  8  1
  7  9  1
  7 10  1
 11 12  2
 12 13  1
 12 20  1
 13 14  1
 14 15  1
 14 16  2
 16 17  1
 16 18  1
 18 19  1
 18 20  2
 20 21  1
 22 23  1
 23 24  1
 23 25  1
 23 26  1
 26 27  2
 26 28  1
 28 29  1
 28 30  1
 30 31  1
 30 32  1
 30 33  1
 33 34  2
 33 40  1
 34 35  1
 34 36  1
 36 37  1
 36 38  2
 38 39  1
 38 46  1
 39 40  2
 39 42  1
 40 41  1
 42 43  1
 43 44  1
 43 45  1
 43 46  1
M  ZZC   1 o1
M  ZZC   2 c11
M  ZZC   3 c4
M  ZZC   4 c3
M  ZZC   5 h15
M  ZZC   6 c2
M  ZZC   7 c1
M  ZZC   8 h16
M  ZZC   9 h17
M  ZZC  10 h18
M  ZZC  11 n1
M  ZZC  12 c10
M  ZZC  13 c5
M  ZZC  14 c6
M  ZZC  15 h14
M  ZZC  16 c7
M  ZZC  17 h13
M  ZZC  18 c8
M  ZZC  19 h12
M  ZZC  20 c9
M  ZZC  21 h11
M  ZZC  22 o2
M  ZZC  23 c12
M  ZZC  24 h10
M  ZZC  25 h9
M  ZZC  26 c13
M  ZZC  27 o3
M  ZZC  28 n2
M  ZZC  29 h8
M  ZZC  30 c14
M  ZZC  31 h6
M  ZZC  32 h7
M  ZZC  33 c15
M  ZZC  34 c16
M  ZZC  35 h5
M  ZZC  36 c17
M  ZZC  37 h4
M  ZZC  38 c18
M  ZZC  39 c19
M  ZZC  40 c20
M  ZZC  41 h3
M  ZZC  42 o4
M  ZZC  43 c21
M  ZZC  44 h1
M  ZZC  45 h2
M  ZZC  46 o5
M  ZZM   1 7
M  ZZI   1 82
M  ZZM   2 3
M  ZZI   2 123
M  ZZM   3 37
M  ZZI   3 124
M  ZZM   4 37
M  ZZI   4 125
M  ZZM   5 5
M  ZZI   5 1
M  ZZM   6 37
M  ZZI   6 124
M  ZZM   7 1
M  ZZI   7 111
M  ZZM   8 5
M  ZZI   8 1
M  ZZM   9 5
M  ZZI   9 1
M  ZZM  10 5
M  ZZI  10 1
M  ZZM  11 38
M  ZZI  11 223
M  ZZM  12 37
M  ZZI  12 124
M  ZZM  13 37
M  ZZI  13 124
M  ZZM  14 37
M  ZZI  14 125
M  ZZM  15 5
M  ZZI  15 1
M  ZZM  16 37
M  ZZI  16 125
M  ZZM  17 5
M  ZZI  17 1
M  ZZM  18 37
M  ZZI  18 125
M  ZZM  19 5
M  ZZI  19 1
M  ZZM  20 37
M  ZZI  20 125
M  ZZM  21 5
M  ZZI  21 1
M  ZZM  22 6
M  ZZI  22 65
M  ZZM  23 1
M  ZZI  23 112
M  ZZM  24 5
M  ZZI  24 1
M  ZZM  25 5
M  ZZI  25 1
M  ZZM  26 3
M  ZZI  26 121
M  ZZM  27 7
M  ZZI  27 81
M  ZZM  28 10
M  ZZI  28 211
M  ZZM  29 28
M  ZZI  29 11
M  ZZM  30 1
M  ZZI  30 112
M  ZZM  31 5
M  ZZI  31 1
M  ZZM  32 5
M  ZZI  32 1
M  ZZM  33 37
M  ZZI  33 124
M  ZZM  34 37
M  ZZI  34 125
M  ZZM  35 5
M  ZZI  35 1
M  ZZM  36 37
M  ZZI  36 125
M  ZZM  37 5
M  ZZI  37 1
M  ZZM  38 37
M  ZZI  38 124
M  ZZM  39 37
M  ZZI  39 124
M  ZZM  40 37
M  ZZI  40 125
M  ZZM  41 5
M  ZZI  41 1
M  ZZM  42 6
M  ZZI  42 59
M  ZZM  43 1
M  ZZI  43 112
M  ZZM  44 5
M  ZZI  44 1
M  ZZM  45 5
M  ZZI  45 1
M  ZZM  46 6
M  ZZI  46 59
M  END
> <NAME>
Z16536715

> <Score>
-26.85449

> <Natom>
46

> <Nflex>
4

> <Hbond>
-3.857478

> <Hphob>
-6.136751

> <VwInt>
-29.721348

> <Eintl>
6.781353

> <Dsolv>
12.978196

> <SolEl>
6.976144

> <mfScore>
-95.086821

> <RecConf>
1

> <molLogP>
3.492718

$$$$
Z18026963
  MOLSOFT 11211612053D

 46 48  0  0  1  0  0  0  0  0999 V2000
  -33.4232   10.9176   65.3092 O   0  0  0
  -33.7841   10.4835   66.3915 C   0  0  0
  -33.5723   11.1990   67.6896 C   0  0  0
  -34.5214   11.2085   68.2365 H   0  0  0
  -33.2944   12.2356   67.4699 H   0  0  0
  -32.4910   10.5499   68.5105 C   0  0  0
  -32.2043   11.0805   69.8573 C   0  0  0
  -32.8774   12.1760   70.3810 C   0  0  0
  -33.6592   12.6905   69.8323 H   0  0  0
  -32.5374   12.6344   71.6375 C   0  0  0
  -33.0633   13.4816   72.0673 H   0  0  0
  -31.5254   12.0282   72.3531 C   0  0  0
  -31.2505   12.4182   73.3252 H   0  0  0
  -30.8654   10.9293   71.8433 C   0  0  0
  -30.0809   10.4534   72.4248 H   0  0  0
  -31.2214   10.4562   70.5917 C   0  0  0
  -30.5520    9.2757   70.0285 C   0  0  0
  -29.7439    8.6402   70.6882 O   0  0  0
  -30.8931    8.9408   68.7427 N   0  0  0
  -30.4285    8.1526   68.3054 H   0  0  0
  -31.8515    9.5498   67.9871 N   0  0  0
  -34.4034    9.2856   66.5958 O   0  0  0
  -34.5868    8.5000   65.4071 C   0  0  1
  -35.0490    9.1050   64.6185 H   0  0  0
  -33.2805    7.8537   64.9480 C   0  0  0
  -32.5677    8.6006   64.5886 H   0  0  0
  -33.4567    7.1359   64.1406 H   0  0  0
  -32.7920    7.3266   65.7722 H   0  0  0
  -35.5601    7.4113   65.8056 C   0  0  0
  -36.2941    6.8801   64.9877 O   0  0  0
  -35.4856    7.0569   67.1357 N   0  0  0
  -34.8256    7.5410   67.7359 H   0  0  0
  -36.3271    6.0274   67.7023 C   0  0  0
  -37.2095    5.8860   67.0710 H   0  0  0
  -36.6765    6.3950   68.6720 H   0  0  0
  -35.5880    4.7264   67.8663 C   0  0  0
  -35.1777    3.9947   66.7592 C   0  0  0
  -35.3907    4.3507   65.7560 H   0  0  0
  -34.4974    2.8051   66.9155 C   0  0  0
  -34.1808    2.2455   66.0430 H   0  0  0
  -34.2194    2.3240   68.1766 C   0  0  0
  -33.6837    1.3876   68.2948 H   0  0  0
  -34.6268    3.0365   69.2839 C   0  0  0
  -34.4136    2.6574   70.2782 H   0  0  0
  -35.3028    4.2308   69.1312 C   0  0  0
  -35.6112    4.7761   70.0181 H   0  0  0
  2  1  2
  2  3  1
  2 22  1
  3  4  1
  3  5  1
  3  6  1
  6  7  1
  6 21  2
  7  8  1
  7 16  2
  8  9  1
  8 10  2
 10 11  1
 10 12  1
 12 13  1
 12 14  2
 14 15  1
 14 16  1
 16 17  1
 17 18  2
 17 19  1
 19 20  1
 19 21  1
 23 22  1
 23 24  1
 23 25  1
 23 29  1
 25 26  1
 25 27  1
 25 28  1
 29 30  2
 29 31  1
 31 32  1
 31 33  1
 33 34  1
 33 35  1
 33 36  1
 36 37  1
 36 45  2
 37 38  1
 37 39  2
 39 40  1
 39 41  1
 41 42  1
 41 43  2
 43 44  1
 43 45  1
 45 46  1
M  ZZC   1 o3
M  ZZC   2 c11
M  ZZC   3 c12
M  ZZC   4 h5
M  ZZC   5 h6
M  ZZC   6 c13
M  ZZC   7 c14
M  ZZC   8 c15
M  ZZC   9 h4
M  ZZC  10 c16
M  ZZC  11 h3
M  ZZC  12 c17
M  ZZC  13 h2
M  ZZC  14 c18
M  ZZC  15 h1
M  ZZC  16 c19
M  ZZC  17 c20
M  ZZC  18 o4
M  ZZC  19 n2
M  ZZC  20 h18
M  ZZC  21 n3
M  ZZC  22 o2
M  ZZC  23 c2
M  ZZC  24 h19
M  ZZC  25 c1
M  ZZC  26 h15
M  ZZC  27 h16
M  ZZC  28 h17
M  ZZC  29 c3
M  ZZC  30 o1
M  ZZC  31 n1
M  ZZC  32 h14
M  ZZC  33 c4
M  ZZC  34 h12
M  ZZC  35 h13
M  ZZC  36 c5
M  ZZC  37 c10
M  ZZC  38 h7
M  ZZC  39 c9
M  ZZC  40 h8
M  ZZC  41 c8
M  ZZC  42 h9
M  ZZC  43 c7
M  ZZC  44 h10
M  ZZC  45 c6
M  ZZC  46 h11
M  ZZM   1 7
M  ZZI   1 82
M  ZZM   2 3
M  ZZI   2 123
M  ZZM   3 1
M  ZZI   3 112
M  ZZM   4 5
M  ZZI   4 1
M  ZZM   5 5
M  ZZI   5 1
M  ZZM   6 3
M  ZZI   6 121
M  ZZM   7 37
M  ZZI   7 124
M  ZZM   8 37
M  ZZI   8 125
M  ZZM   9 5
M  ZZI   9 1
M  ZZM  10 37
M  ZZI  10 125
M  ZZM  11 5
M  ZZI  11 1
M  ZZM  12 37
M  ZZI  12 125
M  ZZM  13 5
M  ZZI  13 1
M  ZZM  14 37
M  ZZI  14 125
M  ZZM  15 5
M  ZZI  15 1
M  ZZM  16 37
M  ZZI  16 124
M  ZZM  17 3
M  ZZI  17 121
M  ZZM  18 7
M  ZZI  18 81
M  ZZM  19 10
M  ZZI  19 191
M  ZZM  20 28
M  ZZI  20 11
M  ZZM  21 9
M  ZZI  21 220
M  ZZM  22 6
M  ZZI  22 61
M  ZZM  23 1
M  ZZI  23 113
M  ZZM  24 5
M  ZZI  24 1
M  ZZM  25 1
M  ZZI  25 111
M  ZZM  26 5
M  ZZI  26 1
M  ZZM  27 5
M  ZZI  27 1
M  ZZM  28 5
M  ZZI  28 1
M  ZZM  29 3
M  ZZI  29 121
M  ZZM  30 7
M  ZZI  30 81
M  ZZM  31 10
M  ZZI  31 211
M  ZZM  32 28
M  ZZI  32 11
M  ZZM  33 1
M  ZZI  33 112
M  ZZM  34 5
M  ZZI  34 1
M  ZZM  35 5
M  ZZI  35 1
M  ZZM  36 37
M  ZZI  36 124
M  ZZM  37 37
M  ZZI  37 125
M  ZZM  38 5
M  ZZI  38 1
M  ZZM  39 37
M  ZZI  39 125
M  ZZM  40 5
M  ZZI  40 1
M  ZZM  41 37
M  ZZI  41 125
M  ZZM  42 5
M  ZZI  42 1
M  ZZM  43 37
M  ZZI  43 125
M  ZZM  44 5
M  ZZI  44 1
M  ZZM  45 37
M  ZZI  45 125
M  ZZM  46 5
M  ZZI  46 1
M  END
> <NAME>
Z18026963

> <Score>
-26.509759

> <Natom>
46

> <Nflex>
6

> <Hbond>
-3.508182

> <Hphob>
-5.891599

> <VwInt>
-31.576784

> <Eintl>
9.113516

> <Dsolv>
14.659544

> <SolEl>
4.99309

> <mfScore>
-89.869726

> <RecConf>
1

> <molLogP>
1.984399

$$$$
Z1268664358
  MOLSOFT 11211612053D

 46 49  0  0  1  0  0  0  0  0999 V2000
  -35.2739   11.0569   67.6319 H   0  0  0
  -34.3546   10.6660   67.4514 N   0  0  0
  -33.2284   10.9720   68.1959 C   0  0  0
  -33.2553   11.9131   69.3288 C   0  0  0
  -32.2374   12.1754   69.6300 H   0  0  0
  -33.7711   11.4557   70.1772 H   0  0  0
  -33.7794   12.8274   69.0375 H   0  0  0
  -32.2190   10.2228   67.6377 C   0  0  0
  -31.1698   10.0905   67.8622 H   0  0  0
  -32.7592    9.5378   66.5569 N   0  0  0
  -34.0604    9.8150   66.4624 C   0  3  0
  -34.9598    9.2962   65.3929 C   0  0  1
  -35.1388   10.2106   64.8185 H   0  0  0
  -34.2552    8.3040   64.4530 C   0  0  0
  -34.7528    8.2883   63.4784 H   0  0  0
  -34.3124    7.2849   64.8415 H   0  0  0
  -32.7774    8.6431   64.2856 C   0  0  0
  -32.6787    9.6267   63.8161 H   0  0  0
  -32.3006    7.9185   63.6182 H   0  0  0
  -32.0703    8.6484   65.6360 C   0  0  0
  -32.0712    7.6479   66.0792 H   0  0  0
  -31.0309    8.9727   65.5284 H   0  0  0
  -36.3242    8.7962   65.8936 C   0  0  0
  -37.0542    8.9774   65.1018 H   0  0  0
  -36.6710    9.3830   66.7488 H   0  0  0
  -36.3898    7.3631   66.2123 N   0  0  0
  -37.3702    7.1133   66.3626 H   0  0  0
  -35.6461    7.0088   67.4293 C   0  0  0
  -34.6524    7.4630   67.4322 H   0  0  0
  -36.1811    7.3956   68.3022 H   0  0  0
  -35.4374    5.5245   67.5746 C   0  0  0
  -35.1685    4.7255   66.4601 C   0  0  0
  -35.1800    5.1555   65.4645 H   0  0  0
  -34.8512    3.3854   66.5919 C   0  0  0
  -34.6244    2.7686   65.7294 H   0  0  0
  -34.8204    2.8613   67.8600 C   0  0  0
  -35.0950    3.6094   68.9555 C   0  0  0
  -35.3993    4.9518   68.8443 C   0  0  0
  -35.5772    5.5451   69.7363 H   0  0  0
  -34.9242    2.7921   70.1705 C   0  0  0
  -35.7502    2.8875   70.8830 H   0  0  0
  -33.9767    3.0415   70.6602 H   0  0  0
  -34.8722    1.4098   69.5305 C   0  0  0
  -35.8562    0.9263   69.5586 H   0  0  0
  -34.1670    0.7525   70.0493 H   0  0  0
  -34.4834    1.5502   68.1491 O   0  0  0
  2  1  1
  2  3  1
  2 11  2
  3  4  1
  3  8  2
  4  5  1
  4  6  1
  4  7  1
  8  9  1
  8 10  1
 10 11  1
 10 20  1
 12 11  1
 12 13  1
 12 14  1
 12 23  1
 14 15  1
 14 16  1
 14 17  1
 17 18  1
 17 19  1
 17 20  1
 20 21  1
 20 22  1
 23 24  1
 23 25  1
 23 26  1
 26 27  1
 26 28  1
 28 29  1
 28 30  1
 28 31  1
 31 32  1
 31 38  2
 32 33  1
 32 34  2
 34 35  1
 34 36  1
 36 37  2
 36 46  1
 37 38  1
 37 40  1
 38 39  1
 40 41  1
 40 42  1
 40 43  1
 43 44  1
 43 45  1
 43 46  1
M  ZZC   1 h1
M  ZZC   2 n2
M  ZZC   3 c2
M  ZZC   4 c1
M  ZZC   5 h21
M  ZZC   6 h22
M  ZZC   7 h23
M  ZZC   8 c3
M  ZZC   9 h20
M  ZZC  10 n1
M  ZZC  11 c4
M  ZZC  12 c5
M  ZZC  13 h24
M  ZZC  14 c6
M  ZZC  15 h18
M  ZZC  16 h19
M  ZZC  17 c7
M  ZZC  18 h16
M  ZZC  19 h17
M  ZZC  20 c8
M  ZZC  21 h14
M  ZZC  22 h15
M  ZZC  23 c9
M  ZZC  24 h12
M  ZZC  25 h13
M  ZZC  26 n3
M  ZZC  27 h11
M  ZZC  28 c10
M  ZZC  29 h10
M  ZZC  30 h9
M  ZZC  31 c11
M  ZZC  32 c12
M  ZZC  33 h8
M  ZZC  34 c13
M  ZZC  35 h7
M  ZZC  36 c14
M  ZZC  37 c15
M  ZZC  38 c16
M  ZZC  39 h6
M  ZZC  40 c17
M  ZZC  41 h4
M  ZZC  42 h5
M  ZZC  43 c18
M  ZZC  44 h2
M  ZZC  45 h3
M  ZZC  46 o1
M  ZZM   1 36
M  ZZI   1 17
M  ZZM   2 81
M  ZZI   2 233
M  ZZM   3 78
M  ZZI   3 106
M  ZZM   4 1
M  ZZI   4 111
M  ZZM   5 5
M  ZZI   5 1
M  ZZM   6 5
M  ZZI   6 1
M  ZZM   7 5
M  ZZI   7 1
M  ZZM   8 78
M  ZZI   8 106
M  ZZM   9 5
M  ZZI   9 1
M  ZZM  10 81
M  ZZI  10 233
M  ZZM  11 80
M  ZZI  11 107
M  ZZM  12 1
M  ZZI  12 113
M  ZZM  13 5
M  ZZI  13 1
M  ZZM  14 1
M  ZZI  14 112
M  ZZM  15 5
M  ZZI  15 1
M  ZZM  16 5
M  ZZI  16 1
M  ZZM  17 1
M  ZZI  17 112
M  ZZM  18 5
M  ZZI  18 1
M  ZZM  19 5
M  ZZI  19 1
M  ZZM  20 1
M  ZZI  20 112
M  ZZM  21 5
M  ZZI  21 1
M  ZZM  22 5
M  ZZI  22 1
M  ZZM  23 1
M  ZZI  23 112
M  ZZM  24 5
M  ZZI  24 1
M  ZZM  25 5
M  ZZI  25 1
M  ZZM  26 8
M  ZZI  26 214
M  ZZM  27 23
M  ZZI  27 10
M  ZZM  28 1
M  ZZI  28 112
M  ZZM  29 5
M  ZZI  29 1
M  ZZM  30 5
M  ZZI  30 1
M  ZZM  31 37
M  ZZI  31 124
M  ZZM  32 37
M  ZZI  32 125
M  ZZM  33 5
M  ZZI  33 1
M  ZZM  34 37
M  ZZI  34 125
M  ZZM  35 5
M  ZZI  35 1
M  ZZM  36 37
M  ZZI  36 124
M  ZZM  37 37
M  ZZI  37 124
M  ZZM  38 37
M  ZZI  38 125
M  ZZM  39 5
M  ZZI  39 1
M  ZZM  40 1
M  ZZI  40 112
M  ZZM  41 5
M  ZZI  41 1
M  ZZM  42 5
M  ZZI  42 1
M  ZZM  43 1
M  ZZI  43 112
M  ZZM  44 5
M  ZZI  44 1
M  ZZM  45 5
M  ZZI  45 1
M  ZZM  46 6
M  ZZI  46 59
M  CHG  1  11   1
M  END
> <NAME>
Z1268664358

> <Score>
-26.488997

> <Natom>
46

> <Nflex>
4

> <Hbond>
-3.087369

> <Hphob>
-7.593654

> <VwInt>
-29.492677

> <Eintl>
6.556778

> <Dsolv>
9.898451

> <SolEl>
9.21005

> <mfScore>
-92.887973

> <RecConf>
1

> <molLogP>
2.419972

$$$$
Z229609968
  MOLSOFT 11211612053D

 46 48  0  0  0  0  0  0  0  0999 V2000
  -36.4073    7.2055   65.1115 O   0  0  0
  -36.1051    7.7341   66.1740 C   0  0  0
  -35.7170    6.9305   67.3293 C   0  0  0
  -35.5477    7.3592   68.6632 C   0  0  0
  -35.6499    8.3658   69.0458 H   0  0  0
  -35.2602    6.2693   69.4504 C   0  0  0
  -35.0667    6.2989   70.9244 C   0  0  0
  -35.9134    5.8407   71.4444 H   0  0  0
  -34.1338    5.8191   71.2291 H   0  0  0
  -35.0024    7.3334   71.2749 H   0  0  0
  -35.2034    5.1437   68.6334 N   0  0  0
  -35.4226    5.5730   67.3270 C   0  0  0
  -35.3481    4.6454   66.1601 C   0  0  0
  -36.2310    4.0023   66.1099 H   0  0  0
  -35.2881    5.1918   65.2186 H   0  0  0
  -34.4520    4.0203   66.1872 H   0  0  0
  -34.9775    3.8054   68.9980 C   0  0  0
  -34.9047    2.8201   68.1265 N   0  0  0
  -34.6796    1.6387   68.7905 C   0  0  0
  -34.5897    0.7243   68.2226 H   0  0  0
  -34.5900    1.7283   70.1619 C   0  0  0
  -34.4225    0.9390   70.8798 H   0  0  0
  -34.7956    3.3551   70.6485 S   0  0  0
  -36.1283    9.2476   66.3026 C   0  0  0
  -37.0698    9.5883   65.8596 H   0  0  0
  -36.1576    9.5732   67.3441 H   0  0  0
  -35.0572    9.8952   65.5809 O   0  0  0
  -33.8268    9.6576   66.1995 C   0  0  0
  -32.9287    8.7771   65.6045 C   0  0  0
  -33.2130    8.0831   64.3249 C   0  0  0
  -32.6117    7.0632   64.0407 O   0  0  0
  -34.1398    8.6496   63.5001 N   0  0  0
  -34.3167    8.2282   62.5946 H   0  0  0
  -34.6638    9.4829   63.7455 H   0  0  0
  -31.7141    8.5098   66.2141 C   0  0  0
  -30.9994    7.8352   65.7589 H   0  0  0
  -31.3872    9.1176   67.4040 C   0  0  0
  -30.4394    8.8922   67.8831 H   0  0  0
  -32.2426   10.0339   67.9727 C   0  0  0
  -31.9264   10.5040   68.8963 H   0  0  0
  -33.4563   10.3316   67.3621 C   0  0  0
  -34.3332   11.2946   67.8668 O   0  0  0
  -33.7150   12.1349   68.8478 C   0  0  0
  -34.3946   12.9574   69.0604 H   0  0  0
  -33.5571   11.5950   69.7869 H   0  0  0
  -32.7859   12.5751   68.4704 H   0  0  0
  2  1  2
  2  3  1
  2 24  1
  3  4  1
  3 12  2
  4  5  1
  4  6  2
  6  7  1
  6 11  1
  7  8  1
  7  9  1
  7 10  1
 11 12  1
 11 17  1
 12 13  1
 13 14  1
 13 15  1
 13 16  1
 17 18  2
 17 23  1
 18 19  1
 19 20  1
 19 21  2
 21 22  1
 21 23  1
 24 25  1
 24 26  1
 24 27  1
 27 28  1
 28 29  2
 28 41  1
 29 30  1
 29 35  1
 30 31  2
 30 32  1
 32 33  1
 32 34  1
 35 36  1
 35 37  2
 37 38  1
 37 39  1
 39 40  1
 39 41  2
 41 42  1
 42 43  1
 43 44  1
 43 45  1
 43 46  1
M  ZZC   1 o1
M  ZZC   2 c10
M  ZZC   3 c4
M  ZZC   4 c3
M  ZZC   5 h16
M  ZZC   6 c2
M  ZZC   7 c1
M  ZZC   8 h17
M  ZZC   9 h18
M  ZZC  10 h19
M  ZZC  11 n1
M  ZZC  12 c5
M  ZZC  13 c9
M  ZZC  14 h11
M  ZZC  15 h12
M  ZZC  16 h13
M  ZZC  17 c6
M  ZZC  18 n2
M  ZZC  19 c7
M  ZZC  20 h15
M  ZZC  21 c8
M  ZZC  22 h14
M  ZZC  23 s1
M  ZZC  24 c11
M  ZZC  25 h10
M  ZZC  26 h9
M  ZZC  27 o2
M  ZZC  28 c12
M  ZZC  29 c13
M  ZZC  30 c19
M  ZZC  31 o4
M  ZZC  32 n3
M  ZZC  33 h1
M  ZZC  34 h2
M  ZZC  35 c14
M  ZZC  36 h8
M  ZZC  37 c15
M  ZZC  38 h7
M  ZZC  39 c16
M  ZZC  40 h6
M  ZZC  41 c17
M  ZZC  42 o3
M  ZZC  43 c18
M  ZZC  44 h3
M  ZZC  45 h4
M  ZZC  46 h5
M  ZZM   1 7
M  ZZI   1 80
M  ZZM   2 3
M  ZZI   2 122
M  ZZM   3 64
M  ZZI   3 105
M  ZZM   4 64
M  ZZI   4 105
M  ZZM   5 5
M  ZZI   5 1
M  ZZM   6 63
M  ZZI   6 104
M  ZZM   7 1
M  ZZI   7 111
M  ZZM   8 5
M  ZZI   8 1
M  ZZM   9 5
M  ZZI   9 1
M  ZZM  10 5
M  ZZI  10 1
M  ZZM  11 39
M  ZZI  11 215
M  ZZM  12 63
M  ZZI  12 104
M  ZZM  13 1
M  ZZI  13 111
M  ZZM  14 5
M  ZZI  14 1
M  ZZM  15 5
M  ZZI  15 1
M  ZZM  16 5
M  ZZI  16 1
M  ZZM  17 63
M  ZZI  17 104
M  ZZM  18 66
M  ZZI  18 222
M  ZZM  19 64
M  ZZI  19 105
M  ZZM  20 5
M  ZZI  20 1
M  ZZM  21 63
M  ZZI  21 104
M  ZZM  22 5
M  ZZI  22 1
M  ZZM  23 44
M  ZZI  23 248
M  ZZM  24 1
M  ZZI  24 112
M  ZZM  25 5
M  ZZI  25 1
M  ZZM  26 5
M  ZZI  26 1
M  ZZM  27 6
M  ZZI  27 59
M  ZZM  28 37
M  ZZI  28 124
M  ZZM  29 37
M  ZZI  29 124
M  ZZM  30 3
M  ZZI  30 121
M  ZZM  31 7
M  ZZI  31 81
M  ZZM  32 10
M  ZZI  32 212
M  ZZM  33 28
M  ZZI  33 11
M  ZZM  34 28
M  ZZI  34 11
M  ZZM  35 37
M  ZZI  35 125
M  ZZM  36 5
M  ZZI  36 1
M  ZZM  37 37
M  ZZI  37 125
M  ZZM  38 5
M  ZZI  38 1
M  ZZM  39 37
M  ZZI  39 125
M  ZZM  40 5
M  ZZI  40 1
M  ZZM  41 37
M  ZZI  41 124
M  ZZM  42 6
M  ZZI  42 59
M  ZZM  43 1
M  ZZI  43 111
M  ZZM  44 5
M  ZZI  44 1
M  ZZM  45 5
M  ZZI  45 1
M  ZZM  46 5
M  ZZI  46 1
M  END
> <NAME>
Z229609968

> <Score>
-26.458118

> <Natom>
46

> <Nflex>
2

> <Hbond>
-3.612988

> <Hphob>
-7.11043

> <VwInt>
-28.850783

> <Eintl>
7.675679

> <Dsolv>
13.697641

> <SolEl>
7.309516

> <mfScore>
-93.320983

> <RecConf>
1

> <molLogP>
2.479293

$$$$
Z30353427
  MOLSOFT 11211612053D

 46 48  0  0  0  0  0  0  0  0999 V2000
  -31.7691    8.2347   69.7274 N   0  0  0
  -32.2128    9.0928   69.0827 C   0  0  0
  -32.7126   10.1722   68.2924 C   0  0  0
  -33.0308   10.1955   66.9066 C   0  0  0
  -33.3698   11.4298   66.5030 N   0  0  0
  -33.4283   12.1327   67.6562 N   0  0  0
  -33.7616   13.0865   67.6315 H   0  0  0
  -33.0184   11.4289   68.7541 C   0  0  0
  -32.9854   11.9976   69.9841 N   0  0  0
  -32.6638   11.4907   70.8083 H   0  0  0
  -33.2697   12.9596   70.1630 H   0  0  0
  -33.0411    9.0619   65.9396 C   0  0  0
  -32.8399    8.1236   66.4663 H   0  0  0
  -32.2162    9.1880   65.2308 H   0  0  0
  -34.3548    8.9249   65.1591 C   0  0  0
  -34.3108    8.0057   64.5648 H   0  0  0
  -34.4406    9.7480   64.4417 H   0  0  0
  -35.6154    8.9131   66.0279 C   0  0  0
  -36.4961    8.7605   65.3958 H   0  0  0
  -35.7548    9.8646   66.5462 H   0  0  0
  -35.5898    7.8802   67.0409 N   0  0  0
  -35.2622    8.1121   67.9733 H   0  0  0
  -36.0665    6.6092   66.8046 C   0  0  0
  -36.5429    6.1896   65.7576 O   0  0  0
  -35.9372    5.6995   68.0155 C   0  0  0
  -35.2858    4.3854   67.8818 C   0  0  0
  -35.1323    3.6293   69.0201 C   0  0  0
  -35.6337    4.1428   70.3012 C   0  0  0
  -35.4938    3.4515   71.3017 O   0  0  0
  -36.2407    5.3915   70.2752 N   0  0  0
  -36.3884    6.1646   69.1432 N   0  0  0
  -36.7786    5.9417   71.5110 C   0  0  0
  -36.7243    7.0322   71.4625 H   0  0  0
  -36.1490    5.6213   72.3469 H   0  0  0
  -38.2056    5.4848   71.7534 C   0  0  0
  -38.6174    5.9585   72.6489 H   0  0  0
  -38.2528    4.3997   71.8862 H   0  0  0
  -38.8443    5.7384   70.9048 H   0  0  0
  -34.5061    2.3936   68.9757 C   0  0  0
  -34.3781    1.7904   69.8701 H   0  0  0
  -34.0305    1.9278   67.7699 C   0  0  0
  -33.5279    0.9673   67.7232 H   0  0  0
  -34.1884    2.6848   66.6264 C   0  0  0
  -33.8065    2.3216   65.6819 H   0  0  0
  -34.8145    3.9109   66.6688 C   0  0  0
  -34.9156    4.4739   65.7479 H   0  0  0
  2  1  3
  2  3  1
  3  4  1
  3  8  2
  4  5  2
  4 12  1
  5  6  1
  6  7  1
  6  8  1
  8  9  1
  9 10  1
  9 11  1
 12 13  1
 12 14  1
 12 15  1
 15 16  1
 15 17  1
 15 18  1
 18 19  1
 18 20  1
 18 21  1
 21 22  1
 21 23  1
 23 24  2
 23 25  1
 25 26  1
 25 31  2
 26 27  1
 26 45  2
 27 28  1
 27 39  2
 28 29  2
 28 30  1
 30 31  1
 30 32  1
 32 33  1
 32 34  1
 32 35  1
 35 36  1
 35 37  1
 35 38  1
 39 40  1
 39 41  1
 41 42  1
 41 43  2
 43 44  1
 43 45  1
 45 46  1
M  ZZC   1 n7
M  ZZC   2 c18
M  ZZC   3 c16
M  ZZC   4 c15
M  ZZC   5 n5
M  ZZC   6 n4
M  ZZC   7 h19
M  ZZC   8 c17
M  ZZC   9 n6
M  ZZC  10 h1
M  ZZC  11 h2
M  ZZC  12 c14
M  ZZC  13 h3
M  ZZC  14 h4
M  ZZC  15 c13
M  ZZC  16 h5
M  ZZC  17 h6
M  ZZC  18 c12
M  ZZC  19 h7
M  ZZC  20 h8
M  ZZC  21 n3
M  ZZC  22 h9
M  ZZC  23 c11
M  ZZC  24 o2
M  ZZC  25 c10
M  ZZC  26 c9
M  ZZC  27 c4
M  ZZC  28 c3
M  ZZC  29 o1
M  ZZC  30 n1
M  ZZC  31 n2
M  ZZC  32 c2
M  ZZC  33 h14
M  ZZC  34 h15
M  ZZC  35 c1
M  ZZC  36 h16
M  ZZC  37 h17
M  ZZC  38 h18
M  ZZC  39 c5
M  ZZC  40 h13
M  ZZC  41 c6
M  ZZC  42 h12
M  ZZC  43 c7
M  ZZC  44 h11
M  ZZC  45 c8
M  ZZC  46 h10
M  ZZM   1 42
M  ZZI   1 225
M  ZZM   2 4
M  ZZI   2 130
M  ZZM   3 64
M  ZZI   3 105
M  ZZM   4 64
M  ZZI   4 105
M  ZZM   5 65
M  ZZI   5 207
M  ZZM   6 39
M  ZZI   6 215
M  ZZM   7 23
M  ZZI   7 10
M  ZZM   8 63
M  ZZI   8 104
M  ZZM   9 40
M  ZZI   9 224
M  ZZM  10 28
M  ZZI  10 11
M  ZZM  11 28
M  ZZI  11 11
M  ZZM  12 1
M  ZZI  12 112
M  ZZM  13 5
M  ZZI  13 1
M  ZZM  14 5
M  ZZI  14 1
M  ZZM  15 1
M  ZZI  15 112
M  ZZM  16 5
M  ZZI  16 1
M  ZZM  17 5
M  ZZI  17 1
M  ZZM  18 1
M  ZZI  18 112
M  ZZM  19 5
M  ZZI  19 1
M  ZZM  20 5
M  ZZI  20 1
M  ZZM  21 10
M  ZZI  21 211
M  ZZM  22 28
M  ZZI  22 11
M  ZZM  23 3
M  ZZI  23 121
M  ZZM  24 7
M  ZZI  24 81
M  ZZM  25 3
M  ZZI  25 121
M  ZZM  26 37
M  ZZI  26 124
M  ZZM  27 37
M  ZZI  27 124
M  ZZM  28 3
M  ZZI  28 121
M  ZZM  29 7
M  ZZI  29 81
M  ZZM  30 10
M  ZZI  30 192
M  ZZM  31 9
M  ZZI  31 220
M  ZZM  32 1
M  ZZI  32 112
M  ZZM  33 5
M  ZZI  33 1
M  ZZM  34 5
M  ZZI  34 1
M  ZZM  35 1
M  ZZI  35 111
M  ZZM  36 5
M  ZZI  36 1
M  ZZM  37 5
M  ZZI  37 1
M  ZZM  38 5
M  ZZI  38 1
M  ZZM  39 37
M  ZZI  39 125
M  ZZM  40 5
M  ZZI  40 1
M  ZZM  41 37
M  ZZI  41 125
M  ZZM  42 5
M  ZZI  42 1
M  ZZM  43 37
M  ZZI  43 125
M  ZZM  44 5
M  ZZI  44 1
M  ZZM  45 37
M  ZZI  45 125
M  ZZM  46 5
M  ZZI  46 1
M  END
> <NAME>
Z30353427

> <Score>
-26.36352

> <Natom>
46

> <Nflex>
7

> <Hbond>
-5.071869

> <Hphob>
-5.855797

> <VwInt>
-32.326265

> <Eintl>
7.407297

> <Dsolv>
16.678441

> <SolEl>
9.104738

> <mfScore>
-91.844233

> <RecConf>
1

> <molLogP>
0.816185

$$$$
Z737882376
  MOLSOFT 11211612053D

 46 47  0  0  1  0  0  0  0  0999 V2000
  -35.1083    3.8657   65.6097 H   0  0  0
  -35.1768    3.8361   66.6916 C   0  0  0
  -35.4914    4.8985   67.4376 C   0  0  0
  -35.5567    4.7598   68.8683 C   0  0  0
  -35.8690    5.6064   69.4711 H   0  0  0
  -35.2556    3.5964   69.4569 C   0  0  0
  -35.2958    3.4624   70.5311 H   0  0  0
  -34.8626    2.4274   68.6340 C   0  0  0
  -34.5556    1.3668   69.1550 O   0  0  0
  -34.8744    2.6378   67.2769 N   0  0  0
  -34.6327    1.8503   66.6885 H   0  0  0
  -35.7024    6.1948   66.7297 C   0  0  0
  -36.2790    6.2546   65.6513 O   0  0  0
  -35.1011    7.2471   67.3885 N   0  0  0
  -34.5577    7.0568   68.2229 H   0  0  0
  -34.9106    8.5449   66.7742 C   0  0  1
  -35.7905    8.7399   66.1497 H   0  0  0
  -34.8642    9.6368   67.8606 C   0  0  0
  -35.8766    9.7728   68.2502 H   0  0  0
  -34.2739    9.3198   68.7259 H   0  0  0
  -34.3427   10.9828   67.3809 C   0  0  0
  -33.2569   10.9810   67.2592 H   0  0  0
  -34.5797   11.7636   68.1086 H   0  0  0
  -34.7865   11.2542   66.4237 H   0  0  0
  -33.6997    8.4781   65.8658 C   0  0  0
  -33.8912    8.4252   64.4891 C   0  0  0
  -34.8939    8.4328   64.0723 H   0  0  0
  -32.8229    8.3390   63.6239 C   0  0  0
  -32.9916    8.2706   62.5546 H   0  0  0
  -31.5385    8.3237   64.1125 C   0  0  0
  -30.6997    8.2545   63.4259 H   0  0  0
  -31.3206    8.3628   65.4729 C   0  0  0
  -30.2958    8.3076   65.8183 H   0  0  0
  -32.3949    8.4205   66.3532 C   0  0  0
  -32.2342    8.3898   67.7435 O   0  0  0
  -30.9653    8.9088   68.1670 C   0  0  0
  -30.8235    9.9006   67.7334 H   0  0  0
  -30.1401    8.2472   67.8844 H   0  0  0
  -30.9477    9.0252   69.6752 C   0  0  0
  -30.8922    8.0413   70.3999 O   0  0  0
  -30.9856   10.3287   70.1264 N   0  0  0
  -31.0234   11.0989   69.4648 H   0  0  0
  -30.9562   10.6370   71.5350 C   0  0  0
  -31.8347   10.1978   72.0168 H   0  0  0
  -30.9632   11.7239   71.6571 H   0  0  0
  -30.0488   10.2157   71.9775 H   0  0  0
  2  1  1
  2  3  2
  2 10  1
  3  4  1
  3 12  1
  4  5  1
  4  6  2
  6  7  1
  6  8  1
  8  9  2
  8 10  1
 10 11  1
 12 13  2
 12 14  1
 14 15  1
 16 14  1
 16 17  1
 16 18  1
 16 25  1
 18 19  1
 18 20  1
 18 21  1
 21 22  1
 21 23  1
 21 24  1
 25 26  2
 25 34  1
 26 27  1
 26 28  1
 28 29  1
 28 30  2
 30 31  1
 30 32  1
 32 33  1
 32 34  2
 34 35  1
 35 36  1
 36 37  1
 36 38  1
 36 39  1
 39 40  2
 39 41  1
 41 42  1
 41 43  1
 43 44  1
 43 45  1
 43 46  1
M  ZZC   1 h2
M  ZZC   2 c18
M  ZZC   3 c14
M  ZZC   4 c15
M  ZZC   5 h4
M  ZZC   6 c16
M  ZZC   7 h3
M  ZZC   8 c17
M  ZZC   9 o4
M  ZZC  10 n3
M  ZZC  11 h1
M  ZZC  12 c13
M  ZZC  13 o3
M  ZZC  14 n2
M  ZZC  15 h5
M  ZZC  16 c3
M  ZZC  17 h21
M  ZZC  18 c2
M  ZZC  19 h16
M  ZZC  20 h17
M  ZZC  21 c1
M  ZZC  22 h18
M  ZZC  23 h19
M  ZZC  24 h20
M  ZZC  25 c4
M  ZZC  26 c5
M  ZZC  27 h15
M  ZZC  28 c6
M  ZZC  29 h14
M  ZZC  30 c7
M  ZZC  31 h13
M  ZZC  32 c8
M  ZZC  33 h12
M  ZZC  34 c9
M  ZZC  35 o1
M  ZZC  36 c10
M  ZZC  37 h10
M  ZZC  38 h11
M  ZZC  39 c11
M  ZZC  40 o2
M  ZZC  41 n1
M  ZZC  42 h9
M  ZZC  43 c12
M  ZZC  44 h6
M  ZZC  45 h7
M  ZZC  46 h8
M  ZZM   1 5
M  ZZI   1 1
M  ZZM   2 2
M  ZZI   2 120
M  ZZM   3 2
M  ZZI   3 120
M  ZZM   4 2
M  ZZI   4 120
M  ZZM   5 5
M  ZZI   5 1
M  ZZM   6 2
M  ZZI   6 120
M  ZZM   7 5
M  ZZI   7 1
M  ZZM   8 3
M  ZZI   8 121
M  ZZM   9 7
M  ZZI   9 81
M  ZZM  10 10
M  ZZI  10 191
M  ZZM  11 28
M  ZZI  11 11
M  ZZM  12 3
M  ZZI  12 121
M  ZZM  13 7
M  ZZI  13 81
M  ZZM  14 10
M  ZZI  14 211
M  ZZM  15 28
M  ZZI  15 11
M  ZZM  16 1
M  ZZI  16 113
M  ZZM  17 5
M  ZZI  17 1
M  ZZM  18 1
M  ZZI  18 112
M  ZZM  19 5
M  ZZI  19 1
M  ZZM  20 5
M  ZZI  20 1
M  ZZM  21 1
M  ZZI  21 111
M  ZZM  22 5
M  ZZI  22 1
M  ZZM  23 5
M  ZZI  23 1
M  ZZM  24 5
M  ZZI  24 1
M  ZZM  25 37
M  ZZI  25 124
M  ZZM  26 37
M  ZZI  26 125
M  ZZM  27 5
M  ZZI  27 1
M  ZZM  28 37
M  ZZI  28 125
M  ZZM  29 5
M  ZZI  29 1
M  ZZM  30 37
M  ZZI  30 125
M  ZZM  31 5
M  ZZI  31 1
M  ZZM  32 37
M  ZZI  32 125
M  ZZM  33 5
M  ZZI  33 1
M  ZZM  34 37
M  ZZI  34 124
M  ZZM  35 6
M  ZZI  35 59
M  ZZM  36 1
M  ZZI  36 112
M  ZZM  37 5
M  ZZI  37 1
M  ZZM  38 5
M  ZZI  38 1
M  ZZM  39 3
M  ZZI  39 121
M  ZZM  40 7
M  ZZI  40 81
M  ZZM  41 10
M  ZZI  41 211
M  ZZM  42 28
M  ZZI  42 11
M  ZZM  43 1
M  ZZI  43 111
M  ZZM  44 5
M  ZZI  44 1
M  ZZM  45 5
M  ZZI  45 1
M  ZZM  46 5
M  ZZI  46 1
M  END
> <NAME>
Z737882376

> <Score>
-26.156737

> <Natom>
46

> <Nflex>
5

> <Hbond>
-3.661667

> <Hphob>
-6.878758

> <VwInt>
-29.466522

> <Eintl>
7.827472

> <Dsolv>
14.03994

> <SolEl>
5.534264

> <mfScore>
-92.586042

> <RecConf>
1

> <molLogP>
0.796379

$$$$
Z16128173
  MOLSOFT 11211612053D

 46 47  0  0  1  0  0  0  0  0999 V2000
  -33.5128   10.8217   65.4908 O   0  0  0
  -33.7403   10.0647   66.4257 C   0  0  0
  -33.6328   10.3849   67.8681 C   0  0  0
  -34.0796    9.4956   68.8379 C   0  0  0
  -34.5620    8.5583   68.5772 H   0  0  0
  -33.8846    9.7918   70.1740 C   0  0  0
  -34.2190    9.0823   70.9258 H   0  0  0
  -33.2624   10.9695   70.5630 C   0  0  0
  -32.9731   11.2374   72.0096 C   0  0  0
  -32.8146   12.3057   72.1867 H   0  0  0
  -32.0749   10.6945   72.3193 H   0  0  0
  -33.8144   10.9320   72.6357 H   0  0  0
  -32.8404   11.8624   69.5929 C   0  0  0
  -32.3425   12.7821   69.8802 H   0  0  0
  -33.0230   11.5585   68.2584 C   0  0  0
  -32.5535   12.4232   67.2963 O   0  0  0
  -31.8843   12.9825   67.7278 H   0  0  0
  -34.1058    8.7566   66.3294 O   0  0  0
  -34.3124    8.2931   64.9882 C   0  0  1
  -34.9037    9.0194   64.4185 H   0  0  0
  -32.9940    7.9662   64.2916 C   0  0  0
  -32.3908    8.8642   64.1349 H   0  0  0
  -33.1712    7.4967   63.3191 H   0  0  0
  -32.3873    7.2826   64.8908 H   0  0  0
  -35.1346    7.0330   65.1608 C   0  0  0
  -36.1134    6.8076   64.4717 O   0  0  0
  -34.6672    6.1808   66.1348 N   0  0  0
  -33.9037    6.4983   66.7211 H   0  0  0
  -35.2819    4.9046   66.4267 C   0  0  0
  -34.5383    4.1316   66.2095 H   0  0  0
  -36.1397    4.7291   65.7701 H   0  0  0
  -35.7163    4.8371   67.8618 C   0  0  0
  -35.1716    3.9007   68.7292 C   0  0  0
  -34.4162    3.2008   68.3836 H   0  0  0
  -35.5891    3.8426   70.0447 C   0  0  0
  -35.1601    3.1049   70.7152 H   0  0  0
  -36.5616    4.7070   70.5059 C   0  0  0
  -37.1107    5.6432   69.6438 C   0  0  0
  -37.8875    6.3249   69.9598 H   0  0  0
  -36.6837    5.7102   68.3356 C   0  0  0
  -37.1329    6.4423   67.6691 H   0  0  0
  -36.9367    4.5573   71.8438 O   0  0  0
  -37.9541    5.4792   72.2517 C   0  0  0
  -37.5895    6.5116   72.2160 H   0  0  0
  -38.2130    5.2552   73.2880 H   0  0  0
  -38.8645    5.3571   71.6580 H   0  0  0
  2  1  2
  2  3  1
  2 18  1
  3  4  2
  3 15  1
  4  5  1
  4  6  1
  6  7  1
  6  8  2
  8  9  1
  8 13  1
  9 10  1
  9 11  1
  9 12  1
 13 14  1
 13 15  2
 15 16  1
 16 17  1
 19 18  1
 19 20  1
 19 21  1
 19 25  1
 21 22  1
 21 23  1
 21 24  1
 25 26  2
 25 27  1
 27 28  1
 27 29  1
 29 30  1
 29 31  1
 29 32  1
 32 33  2
 32 40  1
 33 34  1
 33 35  1
 35 36  1
 35 37  2
 37 38  1
 37 42  1
 38 39  1
 38 40  2
 40 41  1
 42 43  1
 43 44  1
 43 45  1
 43 46  1
M  ZZC   1 o2
M  ZZC   2 c8
M  ZZC   3 c5
M  ZZC   4 c4
M  ZZC   5 h16
M  ZZC   6 c3
M  ZZC   7 h17
M  ZZC   8 c2
M  ZZC   9 c1
M  ZZC  10 h18
M  ZZC  11 h19
M  ZZC  12 h20
M  ZZC  13 c7
M  ZZC  14 h15
M  ZZC  15 c6
M  ZZC  16 o1
M  ZZC  17 h14
M  ZZC  18 o3
M  ZZC  19 c9
M  ZZC  20 h21
M  ZZC  21 c10
M  ZZC  22 h11
M  ZZC  23 h12
M  ZZC  24 h13
M  ZZC  25 c11
M  ZZC  26 o4
M  ZZC  27 n1
M  ZZC  28 h10
M  ZZC  29 c12
M  ZZC  30 h8
M  ZZC  31 h9
M  ZZC  32 c13
M  ZZC  33 c14
M  ZZC  34 h7
M  ZZC  35 c15
M  ZZC  36 h6
M  ZZC  37 c16
M  ZZC  38 c17
M  ZZC  39 h5
M  ZZC  40 c18
M  ZZC  41 h4
M  ZZC  42 o5
M  ZZC  43 c19
M  ZZC  44 h1
M  ZZC  45 h2
M  ZZC  46 h3
M  ZZM   1 7
M  ZZI   1 82
M  ZZM   2 3
M  ZZI   2 123
M  ZZM   3 37
M  ZZI   3 124
M  ZZM   4 37
M  ZZI   4 125
M  ZZM   5 5
M  ZZI   5 1
M  ZZM   6 37
M  ZZI   6 125
M  ZZM   7 5
M  ZZI   7 1
M  ZZM   8 37
M  ZZI   8 124
M  ZZM   9 1
M  ZZI   9 111
M  ZZM  10 5
M  ZZI  10 1
M  ZZM  11 5
M  ZZI  11 1
M  ZZM  12 5
M  ZZI  12 1
M  ZZM  13 37
M  ZZI  13 125
M  ZZM  14 5
M  ZZI  14 1
M  ZZM  15 37
M  ZZI  15 124
M  ZZM  16 6
M  ZZI  16 62
M  ZZM  17 29
M  ZZI  17 27
M  ZZM  18 6
M  ZZI  18 65
M  ZZM  19 1
M  ZZI  19 113
M  ZZM  20 5
M  ZZI  20 1
M  ZZM  21 1
M  ZZI  21 111
M  ZZM  22 5
M  ZZI  22 1
M  ZZM  23 5
M  ZZI  23 1
M  ZZM  24 5
M  ZZI  24 1
M  ZZM  25 3
M  ZZI  25 121
M  ZZM  26 7
M  ZZI  26 81
M  ZZM  27 10
M  ZZI  27 211
M  ZZM  28 28
M  ZZI  28 11
M  ZZM  29 1
M  ZZI  29 112
M  ZZM  30 5
M  ZZI  30 1
M  ZZM  31 5
M  ZZI  31 1
M  ZZM  32 37
M  ZZI  32 124
M  ZZM  33 37
M  ZZI  33 125
M  ZZM  34 5
M  ZZI  34 1
M  ZZM  35 37
M  ZZI  35 125
M  ZZM  36 5
M  ZZI  36 1
M  ZZM  37 37
M  ZZI  37 124
M  ZZM  38 37
M  ZZI  38 125
M  ZZM  39 5
M  ZZI  39 1
M  ZZM  40 37
M  ZZI  40 125
M  ZZM  41 5
M  ZZI  41 1
M  ZZM  42 6
M  ZZI  42 59
M  ZZM  43 1
M  ZZI  43 111
M  ZZM  44 5
M  ZZI  44 1
M  ZZM  45 5
M  ZZI  45 1
M  ZZM  46 5
M  ZZI  46 1
M  END
> <NAME>
Z16128173

> <Score>
-25.94242

> <Natom>
46

> <Nflex>
4

> <Hbond>
-3.808561

> <Hphob>
-6.346533

> <VwInt>
-25.431739

> <Eintl>
6.740294

> <Dsolv>
12.120644

> <SolEl>
2.858595

> <mfScore>
-77.714564

> <RecConf>
1

> <molLogP>
3.003527

$$$$
Z19712551
  MOLSOFT 11211612053D

 46 48  0  0  0  0  0  0  0  0999 V2000
  -36.1277    5.6382   65.2352 O   0  0  0
  -36.2443    5.9236   66.4187 C   0  0  0
  -35.7952    5.0836   67.5099 C   0  0  0
  -35.1752    3.8430   67.4835 C   0  0  0
  -34.8155    3.0750   66.2661 C   0  0  0
  -34.8399    2.0009   66.4451 H   0  0  0
  -33.8110    3.3325   65.9283 H   0  0  0
  -35.5158    3.2636   65.4527 H   0  0  0
  -34.9508    3.4264   68.8401 C   0  0  0
  -34.3064    2.1864   69.2692 C   0  0  0
  -33.6659    1.4964   68.4875 O   0  0  0
  -34.4169    1.7414   70.7017 C   0  0  0
  -33.8346    2.3997   71.3517 H   0  0  0
  -34.0095    0.7311   70.7942 H   0  0  0
  -35.4656    1.7061   71.0104 H   0  0  0
  -35.4621    4.4353   69.6480 C   0  0  0
  -35.5479    4.6213   71.1194 C   0  0  0
  -36.1762    3.8526   71.5799 H   0  0  0
  -35.9899    5.5906   71.3659 H   0  0  0
  -34.5593    4.5516   71.5814 H   0  0  0
  -35.9468    5.4138   68.8293 N   0  0  0
  -36.3628    6.2749   69.1647 H   0  0  0
  -36.9185    7.2200   66.7980 C   0  0  0
  -37.2523    7.7568   65.9063 H   0  0  0
  -37.8082    6.9840   67.3897 H   0  0  0
  -36.0411    8.0446   67.5741 O   0  0  0
  -35.2963    8.9000   66.8149 C   0  0  0
  -35.2829    8.9787   65.5936 O   0  0  0
  -34.4947    9.7501   67.7214 C   0  0  0
  -34.5732    9.5397   69.0918 C   0  0  0
  -35.1976    8.7520   69.5024 H   0  0  0
  -33.8456   10.3392   69.9571 C   0  0  0
  -33.9002   10.1213   71.3259 C   0  0  0
  -34.5063    9.3184   71.7356 H   0  0  0
  -33.1862   10.9263   72.1896 C   0  0  0
  -33.2344   10.7533   73.2598 H   0  0  0
  -32.4156   11.9543   71.6930 C   0  0  0
  -31.8562   12.5919   72.3703 H   0  0  0
  -32.3519   12.1689   70.3326 C   0  0  0
  -31.7342   12.9731   69.9557 H   0  0  0
  -33.0584   11.3654   69.4543 C   0  0  0
  -32.9739   11.5716   68.0851 C   0  0  0
  -32.3458   12.3605   67.6812 H   0  0  0
  -33.6735   10.7577   67.2209 C   0  0  0
  -33.4984   10.9984   65.8656 O   0  0  0
  -34.0066   10.3392   65.3565 H   0  0  0
  2  1  2
  2  3  1
  2 23  1
  3  4  2
  3 21  1
  4  5  1
  4  9  1
  5  6  1
  5  7  1
  5  8  1
  9 10  1
  9 16  2
 10 11  2
 10 12  1
 12 13  1
 12 14  1
 12 15  1
 16 17  1
 16 21  1
 17 18  1
 17 19  1
 17 20  1
 21 22  1
 23 24  1
 23 25  1
 23 26  1
 26 27  1
 27 28  2
 27 29  1
 29 30  2
 29 44  1
 30 31  1
 30 32  1
 32 33  1
 32 41  2
 33 34  1
 33 35  2
 35 36  1
 35 37  1
 37 38  1
 37 39  2
 39 40  1
 39 41  1
 41 42  1
 42 43  1
 42 44  2
 44 45  1
 45 46  1
M  ZZC   1 o1
M  ZZC   2 c6
M  ZZC   3 c5
M  ZZC   4 c2
M  ZZC   5 c1
M  ZZC   6 h16
M  ZZC   7 h17
M  ZZC   8 h18
M  ZZC   9 c3
M  ZZC  10 c20
M  ZZC  11 o5
M  ZZC  12 c21
M  ZZC  13 h1
M  ZZC  14 h2
M  ZZC  15 h3
M  ZZC  16 c4
M  ZZC  17 c19
M  ZZC  18 h4
M  ZZC  19 h5
M  ZZC  20 h6
M  ZZC  21 n1
M  ZZC  22 h19
M  ZZC  23 c7
M  ZZC  24 h14
M  ZZC  25 h15
M  ZZC  26 o2
M  ZZC  27 c8
M  ZZC  28 o3
M  ZZC  29 c9
M  ZZC  30 c10
M  ZZC  31 h13
M  ZZC  32 c11
M  ZZC  33 c12
M  ZZC  34 h12
M  ZZC  35 c13
M  ZZC  36 h11
M  ZZC  37 c14
M  ZZC  38 h10
M  ZZC  39 c15
M  ZZC  40 h9
M  ZZC  41 c16
M  ZZC  42 c17
M  ZZC  43 h8
M  ZZC  44 c18
M  ZZC  45 o4
M  ZZC  46 h7
M  ZZM   1 7
M  ZZI   1 80
M  ZZM   2 3
M  ZZI   2 122
M  ZZM   3 63
M  ZZI   3 104
M  ZZM   4 64
M  ZZI   4 105
M  ZZM   5 1
M  ZZI   5 111
M  ZZM   6 5
M  ZZI   6 1
M  ZZM   7 5
M  ZZI   7 1
M  ZZM   8 5
M  ZZI   8 1
M  ZZM   9 64
M  ZZI   9 105
M  ZZM  10 3
M  ZZI  10 122
M  ZZM  11 7
M  ZZI  11 80
M  ZZM  12 1
M  ZZI  12 111
M  ZZM  13 5
M  ZZI  13 1
M  ZZM  14 5
M  ZZI  14 1
M  ZZM  15 5
M  ZZI  15 1
M  ZZM  16 63
M  ZZI  16 104
M  ZZM  17 1
M  ZZI  17 111
M  ZZM  18 5
M  ZZI  18 1
M  ZZM  19 5
M  ZZI  19 1
M  ZZM  20 5
M  ZZI  20 1
M  ZZM  21 39
M  ZZI  21 215
M  ZZM  22 23
M  ZZI  22 10
M  ZZM  23 1
M  ZZI  23 112
M  ZZM  24 5
M  ZZI  24 1
M  ZZM  25 5
M  ZZI  25 1
M  ZZM  26 6
M  ZZI  26 61
M  ZZM  27 3
M  ZZI  27 123
M  ZZM  28 7
M  ZZI  28 82
M  ZZM  29 37
M  ZZI  29 124
M  ZZM  30 37
M  ZZI  30 125
M  ZZM  31 5
M  ZZI  31 1
M  ZZM  32 37
M  ZZI  32 124
M  ZZM  33 37
M  ZZI  33 125
M  ZZM  34 5
M  ZZI  34 1
M  ZZM  35 37
M  ZZI  35 125
M  ZZM  36 5
M  ZZI  36 1
M  ZZM  37 37
M  ZZI  37 125
M  ZZM  38 5
M  ZZI  38 1
M  ZZM  39 37
M  ZZI  39 125
M  ZZM  40 5
M  ZZI  40 1
M  ZZM  41 37
M  ZZI  41 124
M  ZZM  42 37
M  ZZI  42 125
M  ZZM  43 5
M  ZZI  43 1
M  ZZM  44 37
M  ZZI  44 124
M  ZZM  45 6
M  ZZI  45 62
M  ZZM  46 29
M  ZZI  46 27
M  END
> <NAME>
Z19712551

> <Score>
-25.866479

> <Natom>
46

> <Nflex>
2

> <Hbond>
-3.059935

> <Hphob>
-6.07128

> <VwInt>
-26.914451

> <Eintl>
3.423394

> <Dsolv>
10.859769

> <SolEl>
5.322027

> <mfScore>
-61.801553

> <RecConf>
1

> <molLogP>
2.963833

$$$$
Z87666249
  MOLSOFT 11211612053D

 46 49  0  0  1  0  0  0  0  0999 V2000
  -33.5931    7.8954   66.3284 H   0  0  0
  -33.7757    8.4819   65.5021 N   0  3  0
  -34.1813    7.5441   64.3891 C   0  0  0
  -35.2042    7.7423   64.0627 H   0  0  0
  -34.0915    6.5244   64.7770 H   0  0  0
  -33.1925    7.7852   63.2804 C   0  0  0
  -33.0643    6.9076   62.6456 H   0  0  0
  -33.5450    8.6004   62.6513 H   0  0  0
  -31.9379    8.1931   63.9981 C   0  0  0
  -31.4469    7.3246   64.4349 H   0  0  0
  -31.2217    8.6964   63.3413 H   0  0  0
  -32.4610    9.0955   65.0846 C   0  0  0
  -31.7973    9.1613   65.9532 H   0  0  0
  -32.6602   10.0890   64.6723 H   0  0  0
  -34.8125    9.5238   65.9286 C   0  0  2
  -34.9900   10.1470   65.0446 H   0  0  0
  -34.2888   10.4121   67.0210 C   0  0  0
  -34.3509   10.4067   68.4036 C   0  0  0
  -34.8575    9.6915   69.0336 H   0  0  0
  -33.6147   11.5284   68.8505 C   0  0  0
  -33.4409   11.8465   69.8686 H   0  0  0
  -33.1407   12.1496   67.7223 C   0  0  0
  -32.5288   13.0226   67.5537 H   0  0  0
  -33.5465   11.4839   66.6069 O   0  0  0
  -36.1669    8.8766   66.3201 C   0  0  0
  -36.8206    9.6166   66.7858 H   0  0  0
  -36.6959    8.5322   65.4277 H   0  0  0
  -36.0665    7.7632   67.2561 N   0  0  0
  -35.8847    7.9540   68.2341 H   0  0  0
  -36.2217    6.4513   66.8624 C   0  0  0
  -36.4712    6.1152   65.7129 O   0  0  0
  -35.9824    5.4993   67.9297 C   0  0  0
  -35.3496    4.2277   67.8161 C   0  0  0
  -35.2829    3.6724   69.0845 C   0  0  0
  -35.8862    4.5512   69.9413 N   0  0  0
  -35.9987    4.4006   70.9364 H   0  0  0
  -36.3063    5.6593   69.2648 C   0  0  0
  -36.8130    6.4501   69.7972 H   0  0  0
  -34.6984    2.4491   69.3505 C   0  0  0
  -34.6620    2.0310   70.3515 H   0  0  0
  -34.1482    1.7800   68.2798 C   0  0  0
  -33.6674    0.8199   68.4361 H   0  0  0
  -34.2002    2.3136   67.0118 C   0  0  0
  -33.7512    1.7748   66.1896 H   0  0  0
  -34.8004    3.5243   66.7547 C   0  0  0
  -34.8259    3.9124   65.7427 H   0  0  0
  2  1  1
  2  3  1
 15  2  1
  2 12  1
  3  4  1
  3  5  1
  3  6  1
  6  7  1
  6  8  1
  6  9  1
  9 10  1
  9 11  1
  9 12  1
 12 13  1
 12 14  1
 15 16  1
 15 17  1
 15 25  1
 17 18  2
 17 24  1
 18 19  1
 18 20  1
 20 21  1
 20 22  2
 22 23  1
 22 24  1
 25 26  1
 25 27  1
 25 28  1
 28 29  1
 28 30  1
 30 31  2
 30 32  1
 32 33  1
 32 37  2
 33 34  2
 33 45  1
 34 35  1
 34 39  1
 35 36  1
 35 37  1
 37 38  1
 39 40  1
 39 41  2
 41 42  1
 41 43  1
 43 44  1
 43 45  2
 45 46  1
M  ZZC   1 h1
M  ZZC   2 n3
M  ZZC   3 c16
M  ZZC   4 h8
M  ZZC   5 h9
M  ZZC   6 c17
M  ZZC   7 h6
M  ZZC   8 h7
M  ZZC   9 c18
M  ZZC  10 h4
M  ZZC  11 h5
M  ZZC  12 c19
M  ZZC  13 h2
M  ZZC  14 h3
M  ZZC  15 c11
M  ZZC  16 h21
M  ZZC  17 c12
M  ZZC  18 c13
M  ZZC  19 h12
M  ZZC  20 c14
M  ZZC  21 h11
M  ZZC  22 c15
M  ZZC  23 h10
M  ZZC  24 o2
M  ZZC  25 c10
M  ZZC  26 h13
M  ZZC  27 h14
M  ZZC  28 n2
M  ZZC  29 h15
M  ZZC  30 c9
M  ZZC  31 o1
M  ZZC  32 c7
M  ZZC  33 c5
M  ZZC  34 c4
M  ZZC  35 n1
M  ZZC  36 h22
M  ZZC  37 c8
M  ZZC  38 h16
M  ZZC  39 c3
M  ZZC  40 h18
M  ZZC  41 c2
M  ZZC  42 h19
M  ZZC  43 c1
M  ZZC  44 h20
M  ZZC  45 c6
M  ZZC  46 h17
M  ZZM   1 36
M  ZZI   1 17
M  ZZM   2 34
M  ZZI   2 231
M  ZZM   3 1
M  ZZI   3 112
M  ZZM   4 5
M  ZZI   4 1
M  ZZM   5 5
M  ZZI   5 1
M  ZZM   6 1
M  ZZI   6 112
M  ZZM   7 5
M  ZZI   7 1
M  ZZM   8 5
M  ZZI   8 1
M  ZZM   9 1
M  ZZI   9 112
M  ZZM  10 5
M  ZZI  10 1
M  ZZM  11 5
M  ZZI  11 1
M  ZZM  12 1
M  ZZI  12 112
M  ZZM  13 5
M  ZZI  13 1
M  ZZM  14 5
M  ZZI  14 1
M  ZZM  15 1
M  ZZI  15 113
M  ZZM  16 5
M  ZZI  16 1
M  ZZM  17 63
M  ZZI  17 104
M  ZZM  18 64
M  ZZI  18 105
M  ZZM  19 5
M  ZZI  19 1
M  ZZM  20 64
M  ZZI  20 105
M  ZZM  21 5
M  ZZI  21 1
M  ZZM  22 63
M  ZZI  22 104
M  ZZM  23 5
M  ZZI  23 1
M  ZZM  24 59
M  ZZI  24 56
M  ZZM  25 1
M  ZZI  25 112
M  ZZM  26 5
M  ZZI  26 1
M  ZZM  27 5
M  ZZI  27 1
M  ZZM  28 10
M  ZZI  28 211
M  ZZM  29 28
M  ZZI  29 11
M  ZZM  30 3
M  ZZI  30 121
M  ZZM  31 7
M  ZZI  31 81
M  ZZM  32 64
M  ZZI  32 105
M  ZZM  33 64
M  ZZI  33 105
M  ZZM  34 63
M  ZZI  34 104
M  ZZM  35 39
M  ZZI  35 215
M  ZZM  36 23
M  ZZI  36 10
M  ZZM  37 63
M  ZZI  37 104
M  ZZM  38 5
M  ZZI  38 1
M  ZZM  39 37
M  ZZI  39 125
M  ZZM  40 5
M  ZZI  40 1
M  ZZM  41 37
M  ZZI  41 125
M  ZZM  42 5
M  ZZI  42 1
M  ZZM  43 37
M  ZZI  43 125
M  ZZM  44 5
M  ZZI  44 1
M  ZZM  45 37
M  ZZI  45 125
M  ZZM  46 5
M  ZZI  46 1
M  CHG  1   2   1
M  END
> <NAME>
Z87666249

> <Score>
-25.772157

> <Natom>
46

> <Nflex>
4

> <Hbond>
-2.96562

> <Hphob>
-7.480526

> <VwInt>
-28.897234

> <Eintl>
5.927107

> <Dsolv>
7.620545

> <SolEl>
11.400969

> <mfScore>
-77.307538

> <RecConf>
1

> <molLogP>
1.906929

$$$$
Z839446118
  MOLSOFT 11211612053D

 46 48  0  0  0  0  0  0  0  0999 V2000
  -36.3051    6.7295   65.6803 O   0  0  0
  -36.1727    6.9925   66.8700 C   0  0  0
  -35.3298    8.0698   67.3458 C   0  0  0
  -34.6977    9.0628   66.6091 C   0  0  0
  -34.7337    9.2022   65.1210 C   0  0  0
  -35.7265    8.9393   64.7478 H   0  0  0
  -34.5956   10.2450   64.8251 H   0  0  0
  -33.6869    8.3421   64.4257 C   0  0  0
  -32.6752    8.6406   64.7174 H   0  0  0
  -33.7686    8.4392   63.3395 H   0  0  0
  -33.8025    7.2832   64.6761 H   0  0  0
  -34.0392    9.9426   67.5370 C   0  0  0
  -33.2902   11.1516   67.2140 C   0  0  0
  -32.8595   11.3362   66.0845 O   0  0  0
  -33.0622   12.1983   68.2684 C   0  0  0
  -32.6968   13.1070   67.7851 H   0  0  0
  -32.3073   11.8666   68.9853 H   0  0  0
  -34.0004   12.4435   68.7738 H   0  0  0
  -34.2410    9.4089   68.8018 C   0  0  0
  -33.7647    9.8008   70.1537 C   0  0  0
  -34.0602    9.0683   70.9097 H   0  0  0
  -34.1797   10.7642   70.4570 H   0  0  0
  -32.6731    9.8636   70.1760 H   0  0  0
  -35.0183    8.2962   68.6614 N   0  0  0
  -35.3073    7.7201   69.4458 H   0  0  0
  -36.9511    6.1999   67.8973 C   0  0  0
  -37.7637    5.6844   67.3852 H   0  0  0
  -37.4268    6.8801   68.5993 H   0  0  0
  -36.1837    5.1951   68.6440 N   0  0  0
  -36.1650    5.0371   70.0183 C   0  0  0
  -36.8453    5.9275   70.9944 C   0  0  0
  -36.9188    5.4458   71.9737 H   0  0  0
  -37.8520    6.2065   70.6713 H   0  0  0
  -36.0348    7.0923   71.1206 O   0  0  0
  -36.4892    7.6969   71.7369 H   0  0  0
  -35.4552    3.9807   70.3519 N   0  0  0
  -35.0097    3.4412   69.1787 C   0  0  0
  -34.2305    2.3137   68.9918 C   0  0  0
  -33.8861    1.7252   69.8346 H   0  0  0
  -33.8999    1.9699   67.7007 C   0  0  0
  -33.2770    1.0991   67.5322 H   0  0  0
  -34.3381    2.7170   66.6272 C   0  0  0
  -34.0510    2.4282   65.6247 H   0  0  0
  -35.1338    3.8293   66.7906 C   0  0  0
  -35.4446    4.1750   68.0930 C   0  0  0
  -35.4783    4.3911   65.9297 H   0  0  0
  2  1  2
  2  3  1
  2 26  1
  3  4  2
  3 24  1
  4  5  1
  4 12  1
  5  6  1
  5  7  1
  5  8  1
  8  9  1
  8 10  1
  8 11  1
 12 13  1
 12 19  2
 13 14  2
 13 15  1
 15 16  1
 15 17  1
 15 18  1
 19 20  1
 19 24  1
 20 21  1
 20 22  1
 20 23  1
 24 25  1
 26 27  1
 26 28  1
 26 29  1
 29 30  1
 29 45  1
 30 31  1
 30 36  2
 31 32  1
 31 33  1
 31 34  1
 34 35  1
 36 37  1
 37 38  1
 37 45  2
 38 39  1
 38 40  2
 40 41  1
 40 42  1
 42 43  1
 42 44  2
 44 45  1
 44 46  1
M  ZZC   1 o1
M  ZZC   2 c7
M  ZZC   3 c6
M  ZZC   4 c3
M  ZZC   5 c2
M  ZZC   6 h16
M  ZZC   7 h17
M  ZZC   8 c1
M  ZZC   9 h18
M  ZZC  10 h19
M  ZZC  11 h20
M  ZZC  12 c4
M  ZZC  13 c18
M  ZZC  14 o3
M  ZZC  15 c19
M  ZZC  16 h1
M  ZZC  17 h2
M  ZZC  18 h3
M  ZZC  19 c5
M  ZZC  20 c17
M  ZZC  21 h4
M  ZZC  22 h5
M  ZZC  23 h6
M  ZZC  24 n1
M  ZZC  25 h21
M  ZZC  26 c8
M  ZZC  27 h14
M  ZZC  28 h15
M  ZZC  29 n2
M  ZZC  30 c15
M  ZZC  31 c16
M  ZZC  32 h8
M  ZZC  33 h9
M  ZZC  34 o2
M  ZZC  35 h7
M  ZZC  36 n3
M  ZZC  37 c14
M  ZZC  38 c13
M  ZZC  39 h10
M  ZZC  40 c12
M  ZZC  41 h11
M  ZZC  42 c11
M  ZZC  43 h12
M  ZZC  44 c10
M  ZZC  45 c9
M  ZZC  46 h13
M  ZZM   1 7
M  ZZI   1 80
M  ZZM   2 3
M  ZZI   2 122
M  ZZM   3 63
M  ZZI   3 104
M  ZZM   4 64
M  ZZI   4 105
M  ZZM   5 1
M  ZZI   5 112
M  ZZM   6 5
M  ZZI   6 1
M  ZZM   7 5
M  ZZI   7 1
M  ZZM   8 1
M  ZZI   8 111
M  ZZM   9 5
M  ZZI   9 1
M  ZZM  10 5
M  ZZI  10 1
M  ZZM  11 5
M  ZZI  11 1
M  ZZM  12 64
M  ZZI  12 105
M  ZZM  13 3
M  ZZI  13 122
M  ZZM  14 7
M  ZZI  14 80
M  ZZM  15 1
M  ZZI  15 111
M  ZZM  16 5
M  ZZI  16 1
M  ZZM  17 5
M  ZZI  17 1
M  ZZM  18 5
M  ZZI  18 1
M  ZZM  19 63
M  ZZI  19 104
M  ZZM  20 1
M  ZZI  20 111
M  ZZM  21 5
M  ZZI  21 1
M  ZZM  22 5
M  ZZI  22 1
M  ZZM  23 5
M  ZZI  23 1
M  ZZM  24 39
M  ZZI  24 215
M  ZZM  25 23
M  ZZI  25 10
M  ZZM  26 1
M  ZZI  26 112
M  ZZM  27 5
M  ZZI  27 1
M  ZZM  28 5
M  ZZI  28 1
M  ZZM  29 39
M  ZZI  29 215
M  ZZM  30 63
M  ZZI  30 104
M  ZZM  31 1
M  ZZI  31 112
M  ZZM  32 5
M  ZZI  32 1
M  ZZM  33 5
M  ZZI  33 1
M  ZZM  34 6
M  ZZI  34 60
M  ZZM  35 21
M  ZZI  35 20
M  ZZM  36 66
M  ZZI  36 222
M  ZZM  37 64
M  ZZI  37 105
M  ZZM  38 37
M  ZZI  38 125
M  ZZM  39 5
M  ZZI  39 1
M  ZZM  40 37
M  ZZI  40 125
M  ZZM  41 5
M  ZZI  41 1
M  ZZM  42 37
M  ZZI  42 125
M  ZZM  43 5
M  ZZI  43 1
M  ZZM  44 37
M  ZZI  44 125
M  ZZM  45 63
M  ZZI  45 104
M  ZZM  46 5
M  ZZI  46 1
M  END
> <NAME>
Z839446118

> <Score>
-25.528548

> <Natom>
46

> <Nflex>
5

> <Hbond>
-3.263997

> <Hphob>
-6.956492

> <VwInt>
-27.32694

> <Eintl>
2.505854

> <Dsolv>
11.000727

> <SolEl>
5.252439

> <mfScore>
-91.179695

> <RecConf>
1

> <molLogP>
1.229642

$$$$
Z195918778
  MOLSOFT 11211612053D

 46 48  0  0  0  0  0  0  0  0999 V2000
  -31.6874   12.5275   71.8721 Cl  0  0  0
  -32.7101   11.5683   70.8663 C   0  0  0
  -32.8254   11.8080   69.5594 C   0  0  0
  -32.2765   12.6186   69.0874 H   0  0  0
  -33.6368   11.0469   68.7442 N   0  0  0
  -33.6875   11.3367   67.3994 C   0  0  0
  -33.0341   12.1886   66.8180 O   0  0  0
  -34.6140   10.5081   66.6283 C   0  0  0
  -34.7052   10.7258   65.5718 H   0  0  0
  -35.2610    9.5003   67.2144 C   0  0  0
  -35.1618    9.2281   68.5521 N   0  0  0
  -34.3749    9.9855   69.2489 C   0  0  0
  -34.2302    9.7195   70.7032 C   0  0  0
  -34.7883    8.8891   71.1212 H   0  0  0
  -33.4348   10.4869   71.4536 C   0  0  0
  -33.3265   10.2965   72.5162 H   0  0  0
  -36.1709    8.6199   66.3882 C   0  0  0
  -37.0728    8.3505   66.9360 H   0  0  0
  -36.5476    9.1903   65.5324 H   0  0  0
  -35.4631    7.4224   65.8928 N   0  0  0
  -34.6633    7.5609   64.6590 C   0  0  0
  -34.9647    8.4690   64.1282 H   0  0  0
  -34.8813    6.7512   63.9593 H   0  0  0
  -33.1672    7.6095   64.9563 C   0  0  0
  -32.9506    7.7469   66.0206 H   0  0  0
  -32.6885    6.6797   64.6419 H   0  0  0
  -32.5449    8.7571   64.2083 C   0  0  0
  -32.6079    9.9093   64.6005 O   0  0  0
  -31.9386    8.4067   63.0370 N   0  0  0
  -31.4941    9.1231   62.4762 H   0  0  0
  -31.9063    7.4553   62.6888 H   0  0  0
  -35.4568    6.2083   66.6577 C   0  0  0
  -35.9397    6.1412   67.9623 C   0  0  0
  -36.3716    7.0092   68.4397 H   0  0  0
  -35.8562    4.9898   68.7205 C   0  0  0
  -36.2169    4.9945   69.7441 H   0  0  0
  -35.2983    3.8451   68.1988 C   0  0  0
  -34.8727    3.8521   66.8808 C   0  0  0
  -34.4664    2.9671   66.4047 H   0  0  0
  -34.9583    5.0187   66.1422 C   0  0  0
  -34.6128    4.9828   65.1214 H   0  0  0
  -35.2172    2.7532   69.0667 O   0  0  0
  -34.4426    1.6656   68.5522 C   0  0  0
  -34.9708    1.1737   67.7320 H   0  0  0
  -34.3169    0.9329   69.3537 H   0  0  0
  -33.4451    1.9928   68.2417 H   0  0  0
  2  1  1
  2  3  2
  2 15  1
  3  4  1
  3  5  1
  5  6  1
  5 12  1
  6  7  2
  6  8  1
  8  9  1
  8 10  2
 10 11  1
 10 17  1
 11 12  2
 12 13  1
 13 14  1
 13 15  2
 15 16  1
 17 18  1
 17 19  1
 17 20  1
 20 21  1
 20 32  1
 21 22  1
 21 23  1
 21 24  1
 24 25  1
 24 26  1
 24 27  1
 27 28  2
 27 29  1
 29 30  1
 29 31  1
 32 33  2
 32 40  1
 33 34  1
 33 35  1
 35 36  1
 35 37  2
 37 38  1
 37 42  1
 38 39  1
 38 40  2
 40 41  1
 42 43  1
 43 44  1
 43 45  1
 43 46  1
M  ZZC   1 &Cl1
M  ZZC   2 c16
M  ZZC   3 c15
M  ZZC   4 h3
M  ZZC   5 n3
M  ZZC   6 c14
M  ZZC   7 o3
M  ZZC   8 c13
M  ZZC   9 h4
M  ZZC  10 c12
M  ZZC  11 n4
M  ZZC  12 c19
M  ZZC  13 c18
M  ZZC  14 h1
M  ZZC  15 c17
M  ZZC  16 h2
M  ZZC  17 c11
M  ZZC  18 h5
M  ZZC  19 h6
M  ZZC  20 n1
M  ZZC  21 c8
M  ZZC  22 h11
M  ZZC  23 h12
M  ZZC  24 c9
M  ZZC  25 h10
M  ZZC  26 h9
M  ZZC  27 c10
M  ZZC  28 o2
M  ZZC  29 n2
M  ZZC  30 h7
M  ZZC  31 h8
M  ZZC  32 c5
M  ZZC  33 c4
M  ZZC  34 h15
M  ZZC  35 c3
M  ZZC  36 h16
M  ZZC  37 c2
M  ZZC  38 c7
M  ZZC  39 h13
M  ZZC  40 c6
M  ZZC  41 h14
M  ZZC  42 o1
M  ZZC  43 c1
M  ZZC  44 h17
M  ZZC  45 h18
M  ZZC  46 h19
M  ZZM   1 12
M  ZZI   1 92
M  ZZM   2 2
M  ZZI   2 120
M  ZZM   3 2
M  ZZI   3 120
M  ZZM   4 5
M  ZZI   4 1
M  ZZM   5 10
M  ZZI   5 191
M  ZZM   6 3
M  ZZI   6 121
M  ZZM   7 7
M  ZZI   7 81
M  ZZM   8 2
M  ZZI   8 120
M  ZZM   9 5
M  ZZI   9 1
M  ZZM  10 2
M  ZZI  10 120
M  ZZM  11 9
M  ZZI  11 220
M  ZZM  12 3
M  ZZI  12 121
M  ZZM  13 2
M  ZZI  13 120
M  ZZM  14 5
M  ZZI  14 1
M  ZZM  15 2
M  ZZI  15 120
M  ZZM  16 5
M  ZZI  16 1
M  ZZM  17 1
M  ZZI  17 112
M  ZZM  18 5
M  ZZI  18 1
M  ZZM  19 5
M  ZZI  19 1
M  ZZM  20 40
M  ZZI  20 193
M  ZZM  21 1
M  ZZI  21 112
M  ZZM  22 5
M  ZZI  22 1
M  ZZM  23 5
M  ZZI  23 1
M  ZZM  24 1
M  ZZI  24 112
M  ZZM  25 5
M  ZZI  25 1
M  ZZM  26 5
M  ZZI  26 1
M  ZZM  27 3
M  ZZI  27 121
M  ZZM  28 7
M  ZZI  28 81
M  ZZM  29 10
M  ZZI  29 212
M  ZZM  30 28
M  ZZI  30 11
M  ZZM  31 28
M  ZZI  31 11
M  ZZM  32 37
M  ZZI  32 124
M  ZZM  33 37
M  ZZI  33 125
M  ZZM  34 5
M  ZZI  34 1
M  ZZM  35 37
M  ZZI  35 125
M  ZZM  36 5
M  ZZI  36 1
M  ZZM  37 37
M  ZZI  37 124
M  ZZM  38 37
M  ZZI  38 125
M  ZZM  39 5
M  ZZI  39 1
M  ZZM  40 37
M  ZZI  40 125
M  ZZM  41 5
M  ZZI  41 1
M  ZZM  42 6
M  ZZI  42 59
M  ZZM  43 1
M  ZZI  43 111
M  ZZM  44 5
M  ZZI  44 1
M  ZZM  45 5
M  ZZI  45 1
M  ZZM  46 5
M  ZZI  46 1
M  END
> <NAME>
Z195918778

> <Score>
-25.48829

> <Natom>
46

> <Nflex>
5

> <Hbond>
-2.885155

> <Hphob>
-6.807733

> <VwInt>
-32.368328

> <Eintl>
6.421174

> <Dsolv>
13.532756

> <SolEl>
8.471356

> <mfScore>
-62.742439

> <RecConf>
1

> <molLogP>
1.664642

$$$$
Z18270237
  MOLSOFT 11211612053D

 46 47  0  0  0  0  0  0  0  0999 V2000
  -35.6772    5.0881   71.7979 F   0  0  0
  -36.7329    5.3901   70.9922 C   0  0  0
  -37.4962    6.2847   71.6737 F   0  0  0
  -37.3389    4.5023   70.7840 H   0  0  0
  -36.2451    6.0461   69.8158 O   0  0  0
  -35.7794    5.1498   68.8467 C   0  0  0
  -35.7569    5.6140   67.5366 C   0  0  0
  -35.3449    4.7585   66.5230 C   0  0  0
  -35.3047    5.0807   65.4901 H   0  0  0
  -34.9434    3.4715   66.8147 C   0  0  0
  -34.6177    2.8116   66.0164 H   0  0  0
  -34.9391    3.0246   68.1177 C   0  0  0
  -34.6098    2.0139   68.3389 H   0  0  0
  -35.3521    3.8569   69.1376 C   0  0  0
  -35.3180    3.4724   70.1507 H   0  0  0
  -36.1383    6.9577   67.2911 N   0  0  0
  -36.2776    7.5404   68.1099 H   0  0  0
  -36.3273    7.5143   66.0357 C   0  0  0
  -36.3641    6.8834   64.9907 O   0  0  0
  -36.5389    9.0165   66.0343 C   0  0  0
  -37.5457    9.2143   66.4063 H   0  0  0
  -36.5161    9.4085   65.0140 H   0  0  0
  -35.6271    9.7505   66.8666 O   0  0  0
  -34.2743    9.5924   66.5478 C   0  0  0
  -33.3737    9.9904   67.5289 C   0  0  0
  -33.8620   10.6555   68.8032 C   0  0  0
  -34.9531   10.7282   68.7748 H   0  0  0
  -33.3297   12.0826   68.9179 C   0  0  0
  -32.2413   12.0860   69.0253 H   0  0  0
  -33.7537   12.5893   69.7906 H   0  0  0
  -33.5731   12.6857   68.0387 H   0  0  0
  -33.5047    9.8340   70.0399 C   0  0  0
  -33.9244   10.2882   70.9426 H   0  0  0
  -32.4225    9.7547   70.1832 H   0  0  0
  -33.9045    8.8178   69.9618 H   0  0  0
  -32.0228    9.7568   67.3026 C   0  0  0
  -31.2871   10.0336   68.0514 H   0  0  0
  -31.5860    9.1675   66.1334 C   0  0  0
  -30.5253    8.9812   65.9961 H   0  0  0
  -32.4788    8.8300   65.1337 C   0  0  0
  -31.9946    8.2721   63.8281 C   0  0  0
  -31.8089    9.0795   63.1133 H   0  0  0
  -32.7340    7.5874   63.4007 H   0  0  0
  -31.0681    7.7077   63.9668 H   0  0  0
  -33.8256    9.0648   65.3400 C   0  0  0
  -34.5102    8.8183   64.5371 H   0  0  0
  2  1  1
  2  3  1
  2  4  1
  2  5  1
  5  6  1
  6  7  2
  6 14  1
  7  8  1
  7 16  1
  8  9  1
  8 10  2
 10 11  1
 10 12  1
 12 13  1
 12 14  2
 14 15  1
 16 17  1
 16 18  1
 18 19  2
 18 20  1
 20 21  1
 20 22  1
 20 23  1
 23 24  1
 24 25  1
 24 45  2
 25 26  1
 25 36  2
 26 27  1
 26 28  1
 26 32  1
 28 29  1
 28 30  1
 28 31  1
 32 33  1
 32 34  1
 32 35  1
 36 37  1
 36 38  1
 38 39  1
 38 40  2
 40 41  1
 40 45  1
 41 42  1
 41 43  1
 41 44  1
 45 46  1
M  ZZC   1 f1
M  ZZC   2 c16
M  ZZC   3 f2
M  ZZC   4 h8
M  ZZC   5 o3
M  ZZC   6 c15
M  ZZC   7 c10
M  ZZC   8 c11
M  ZZC   9 h12
M  ZZC  10 c12
M  ZZC  11 h11
M  ZZC  12 c13
M  ZZC  13 h10
M  ZZC  14 c14
M  ZZC  15 h9
M  ZZC  16 n1
M  ZZC  17 h13
M  ZZC  18 c9
M  ZZC  19 o2
M  ZZC  20 c8
M  ZZC  21 h14
M  ZZC  22 h15
M  ZZC  23 o1
M  ZZC  24 c6
M  ZZC  25 c5
M  ZZC  26 c17
M  ZZC  27 h7
M  ZZC  28 c19
M  ZZC  29 h1
M  ZZC  30 h2
M  ZZC  31 h3
M  ZZC  32 c18
M  ZZC  33 h4
M  ZZC  34 h5
M  ZZC  35 h6
M  ZZC  36 c4
M  ZZC  37 h17
M  ZZC  38 c3
M  ZZC  39 h18
M  ZZC  40 c2
M  ZZC  41 c1
M  ZZC  42 h19
M  ZZC  43 h20
M  ZZC  44 h21
M  ZZC  45 c7
M  ZZC  46 h16
M  ZZM   1 11
M  ZZI   1 90
M  ZZM   2 1
M  ZZI   2 113
M  ZZM   3 11
M  ZZI   3 90
M  ZZM   4 5
M  ZZI   4 1
M  ZZM   5 6
M  ZZI   5 59
M  ZZM   6 37
M  ZZI   6 124
M  ZZM   7 37
M  ZZI   7 124
M  ZZM   8 37
M  ZZI   8 125
M  ZZM   9 5
M  ZZI   9 1
M  ZZM  10 37
M  ZZI  10 125
M  ZZM  11 5
M  ZZI  11 1
M  ZZM  12 37
M  ZZI  12 125
M  ZZM  13 5
M  ZZI  13 1
M  ZZM  14 37
M  ZZI  14 125
M  ZZM  15 5
M  ZZI  15 1
M  ZZM  16 10
M  ZZI  16 191
M  ZZM  17 28
M  ZZI  17 11
M  ZZM  18 3
M  ZZI  18 121
M  ZZM  19 7
M  ZZI  19 81
M  ZZM  20 1
M  ZZI  20 112
M  ZZM  21 5
M  ZZI  21 1
M  ZZM  22 5
M  ZZI  22 1
M  ZZM  23 6
M  ZZI  23 59
M  ZZM  24 37
M  ZZI  24 124
M  ZZM  25 37
M  ZZI  25 124
M  ZZM  26 1
M  ZZI  26 113
M  ZZM  27 5
M  ZZI  27 1
M  ZZM  28 1
M  ZZI  28 111
M  ZZM  29 5
M  ZZI  29 1
M  ZZM  30 5
M  ZZI  30 1
M  ZZM  31 5
M  ZZI  31 1
M  ZZM  32 1
M  ZZI  32 111
M  ZZM  33 5
M  ZZI  33 1
M  ZZM  34 5
M  ZZI  34 1
M  ZZM  35 5
M  ZZI  35 1
M  ZZM  36 37
M  ZZI  36 125
M  ZZM  37 5
M  ZZI  37 1
M  ZZM  38 37
M  ZZI  38 125
M  ZZM  39 5
M  ZZI  39 1
M  ZZM  40 37
M  ZZI  40 124
M  ZZM  41 1
M  ZZI  41 111
M  ZZM  42 5
M  ZZI  42 1
M  ZZM  43 5
M  ZZI  43 1
M  ZZM  44 5
M  ZZI  44 1
M  ZZM  45 37
M  ZZI  45 125
M  ZZM  46 5
M  ZZI  46 1
M  END
> <NAME>
Z18270237

> <Score>
-25.46897

> <Natom>
46

> <Nflex>
4

> <Hbond>
-1.347627

> <Hphob>
-8.077893

> <VwInt>
-29.945948

> <Eintl>
7.095581

> <Dsolv>
8.885172

> <SolEl>
6.416338

> <mfScore>
-92.450359

> <RecConf>
1

> <molLogP>
4.471911

$$$$
Z453634924
  MOLSOFT 11211612053D

 46 48  0  0  0  0  0  0  0  0999 V2000
  -33.1356   11.8642   66.3739 O   0  0  0
  -33.3220   11.2815   67.4297 C   0  0  0
  -33.5841    9.9369   67.5554 N   0  0  0
  -33.6623    9.6611   68.9005 C   0  0  0
  -33.8438    8.4759   69.5793 C   0  0  0
  -33.9447    7.5263   69.0688 H   0  0  0
  -33.8741    8.5487   70.9621 C   0  0  0
  -34.0243    7.6436   71.5425 H   0  0  0
  -33.7079    9.7647   71.6163 C   0  0  0
  -33.7320    9.7949   72.7012 H   0  0  0
  -33.5038   10.9366   70.9047 C   0  0  0
  -33.3610   11.8900   71.4040 H   0  0  0
  -33.4893   10.8403   69.5324 C   0  0  0
  -33.2847   11.9093   68.6652 O   0  0  0
  -33.6904    8.9736   66.4630 C   0  0  0
  -32.8441    9.1677   65.7953 H   0  0  0
  -33.5700    7.9553   66.8431 H   0  0  0
  -34.9813    9.1265   65.6486 C   0  0  0
  -34.8822    8.5385   64.7302 H   0  0  0
  -35.0955   10.1691   65.3365 H   0  0  0
  -36.2479    8.6975   66.3916 C   0  0  0
  -36.3165    9.1983   67.3615 H   0  0  0
  -37.1338    8.9916   65.8192 H   0  0  0
  -36.2964    7.1920   66.5515 C   0  0  0
  -36.3196    6.4541   65.5761 O   0  0  0
  -36.3187    6.8041   67.8810 N   0  0  0
  -36.5582    7.4936   68.5821 H   0  0  0
  -36.0471    5.5127   68.3919 C   0  0  0
  -36.3169    5.2702   69.7352 C   0  0  0
  -36.9283    6.3109   70.4407 O   0  0  0
  -37.4325    5.9325   71.7269 C   0  0  0
  -37.9985    6.7786   72.1258 H   0  0  0
  -36.6138    5.7268   72.4239 H   0  0  0
  -38.1226    5.0855   71.6489 H   0  0  0
  -35.9823    4.0536   70.3152 C   0  0  0
  -36.1836    3.8349   71.3576 H   0  0  0
  -35.3640    3.0832   69.5577 C   0  0  0
  -35.1246    2.1381   70.0326 H   0  0  0
  -35.0891    3.3275   68.2195 C   0  0  0
  -35.4530    4.5259   67.6253 C   0  0  0
  -35.2132    4.7024   66.5819 H   0  0  0
  -34.3668    2.3433   67.3800 C   0  0  0
  -34.3898    2.4483   66.1649 O   0  0  0
  -33.6529    1.3768   68.0364 N   0  0  0
  -33.1074    0.7299   67.4843 H   0  0  0
  -33.5633    1.3056   69.0409 H   0  0  0
  2  1  2
  2  3  1
  2 14  1
  3  4  1
  3 15  1
  4  5  2
  4 13  1
  5  6  1
  5  7  1
  7  8  1
  7  9  2
  9 10  1
  9 11  1
 11 12  1
 11 13  2
 13 14  1
 15 16  1
 15 17  1
 15 18  1
 18 19  1
 18 20  1
 18 21  1
 21 22  1
 21 23  1
 21 24  1
 24 25  2
 24 26  1
 26 27  1
 26 28  1
 28 29  1
 28 40  2
 29 30  1
 29 35  2
 30 31  1
 31 32  1
 31 33  1
 31 34  1
 35 36  1
 35 37  1
 37 38  1
 37 39  2
 39 40  1
 39 42  1
 40 41  1
 42 43  2
 42 44  1
 44 45  1
 44 46  1
M  ZZC   1 o4
M  ZZC   2 c18
M  ZZC   3 n2
M  ZZC   4 c12
M  ZZC   5 c13
M  ZZC   6 h6
M  ZZC   7 c14
M  ZZC   8 h5
M  ZZC   9 c15
M  ZZC  10 h4
M  ZZC  11 c16
M  ZZC  12 h3
M  ZZC  13 c17
M  ZZC  14 o3
M  ZZC  15 c11
M  ZZC  16 h7
M  ZZC  17 h8
M  ZZC  18 c10
M  ZZC  19 h10
M  ZZC  20 h9
M  ZZC  21 c9
M  ZZC  22 h11
M  ZZC  23 h12
M  ZZC  24 c8
M  ZZC  25 o2
M  ZZC  26 n1
M  ZZC  27 h13
M  ZZC  28 c7
M  ZZC  29 c2
M  ZZC  30 o1
M  ZZC  31 c1
M  ZZC  32 h17
M  ZZC  33 h18
M  ZZC  34 h19
M  ZZC  35 c3
M  ZZC  36 h16
M  ZZC  37 c4
M  ZZC  38 h15
M  ZZC  39 c5
M  ZZC  40 c6
M  ZZC  41 h14
M  ZZC  42 c19
M  ZZC  43 o5
M  ZZC  44 n3
M  ZZC  45 h1
M  ZZC  46 h2
M  ZZM   1 7
M  ZZI   1 82
M  ZZM   2 3
M  ZZI   2 123
M  ZZM   3 10
M  ZZI   3 192
M  ZZM   4 37
M  ZZI   4 124
M  ZZM   5 37
M  ZZI   5 125
M  ZZM   6 5
M  ZZI   6 1
M  ZZM   7 37
M  ZZI   7 125
M  ZZM   8 5
M  ZZI   8 1
M  ZZM   9 37
M  ZZI   9 125
M  ZZM  10 5
M  ZZI  10 1
M  ZZM  11 37
M  ZZI  11 125
M  ZZM  12 5
M  ZZI  12 1
M  ZZM  13 37
M  ZZI  13 124
M  ZZM  14 6
M  ZZI  14 61
M  ZZM  15 1
M  ZZI  15 112
M  ZZM  16 5
M  ZZI  16 1
M  ZZM  17 5
M  ZZI  17 1
M  ZZM  18 1
M  ZZI  18 112
M  ZZM  19 5
M  ZZI  19 1
M  ZZM  20 5
M  ZZI  20 1
M  ZZM  21 1
M  ZZI  21 112
M  ZZM  22 5
M  ZZI  22 1
M  ZZM  23 5
M  ZZI  23 1
M  ZZM  24 3
M  ZZI  24 121
M  ZZM  25 7
M  ZZI  25 81
M  ZZM  26 10
M  ZZI  26 191
M  ZZM  27 28
M  ZZI  27 11
M  ZZM  28 37
M  ZZI  28 124
M  ZZM  29 37
M  ZZI  29 124
M  ZZM  30 6
M  ZZI  30 59
M  ZZM  31 1
M  ZZI  31 111
M  ZZM  32 5
M  ZZI  32 1
M  ZZM  33 5
M  ZZI  33 1
M  ZZM  34 5
M  ZZI  34 1
M  ZZM  35 37
M  ZZI  35 125
M  ZZM  36 5
M  ZZI  36 1
M  ZZM  37 37
M  ZZI  37 125
M  ZZM  38 5
M  ZZI  38 1
M  ZZM  39 37
M  ZZI  39 124
M  ZZM  40 37
M  ZZI  40 125
M  ZZM  41 5
M  ZZI  41 1
M  ZZM  42 3
M  ZZI  42 121
M  ZZM  43 7
M  ZZI  43 81
M  ZZM  44 10
M  ZZI  44 212
M  ZZM  45 28
M  ZZI  45 11
M  ZZM  46 28
M  ZZI  46 11
M  END
> <NAME>
Z453634924

> <Score>
-25.33729

> <Natom>
46

> <Nflex>
4

> <Hbond>
-3.934642

> <Hphob>
-5.132195

> <VwInt>
-30.295893

> <Eintl>
6.800196

> <Dsolv>
15.328081

> <SolEl>
6.751146

> <mfScore>
-75.850103

> <RecConf>
1

> <molLogP>
2.036499

$$$$
Z928596916
  MOLSOFT 11211612053D

 46 48  0  0  0  0  0  0  0  0999 V2000
  -35.6586    4.3912   65.5093 H   0  0  0
  -35.5176    4.4252   66.5841 C   0  0  0
  -35.8895    5.5504   67.3086 C   0  0  0
  -35.7209    5.5349   68.6859 C   0  0  0
  -36.0226    6.3882   69.2855 H   0  0  0
  -35.1726    4.4350   69.3151 C   0  0  0
  -35.0462    4.4349   70.3930 H   0  0  0
  -34.7885    3.3332   68.5798 C   0  0  0
  -34.3576    2.4681   69.0737 H   0  0  0
  -34.9634    3.3303   67.2130 C   0  0  0
  -34.6733    2.4609   66.6313 H   0  0  0
  -36.5266    6.7419   66.6348 C   0  0  0
  -37.6032    6.5561   66.5914 H   0  0  0
  -36.4105    7.6664   67.2086 H   0  0  0
  -36.0767    6.9196   65.2776 O   0  0  0
  -34.7937    7.4648   65.1304 C   0  0  0
  -34.2772    7.4416   63.8508 C   0  0  0
  -34.8613    7.0377   63.0339 H   0  0  0
  -33.0099    7.9188   63.6008 C   0  0  0
  -32.6044    7.8778   62.5942 H   0  0  0
  -32.2574    8.4474   64.6263 C   0  0  0
  -31.2616    8.8187   64.4067 H   0  0  0
  -32.7718    8.5127   65.9134 C   0  0  0
  -34.0407    8.0094   66.1621 C   0  0  0
  -34.4234    8.0607   67.1736 H   0  0  0
  -31.9753    9.1305   67.0311 C   0  0  0
  -31.9855    8.4585   67.8894 H   0  0  0
  -30.9330    9.2871   66.7399 H   0  0  0
  -32.5203   10.4327   67.4208 N   0  0  0
  -32.7902   10.9674   68.6648 C   0  0  0
  -32.5658   10.3452   70.0192 C   0  0  0
  -31.1171    9.8652   70.2051 C   0  0  0
  -30.8466    9.0510   69.5304 H   0  0  0
  -30.9496    9.4956   71.2218 H   0  0  0
  -30.4037   10.6768   70.0321 H   0  0  0
  -33.5499    9.1897   70.2476 C   0  0  0
  -33.4717    8.7940   71.2652 H   0  0  0
  -33.3760    8.3543   69.5649 H   0  0  0
  -34.5851    9.5144   70.0981 H   0  0  0
  -32.8248   11.4059   71.1003 C   0  0  0
  -32.1451   12.2590   70.9964 H   0  0  0
  -32.6865   10.9983   72.1069 H   0  0  0
  -33.8436   11.8006   71.0484 H   0  0  0
  -33.3080   12.1591   68.4621 N   0  0  0
  -33.3213   12.3656   67.1123 N   0  0  0
  -32.8206   11.3285   66.4673 N   0  0  0
  2  1  1
  2  3  1
  2 10  2
  3  4  2
  3 12  1
  4  5  1
  4  6  1
  6  7  1
  6  8  2
  8  9  1
  8 10  1
 10 11  1
 12 13  1
 12 14  1
 12 15  1
 15 16  1
 16 17  1
 16 24  2
 17 18  1
 17 19  2
 19 20  1
 19 21  1
 21 22  1
 21 23  2
 23 24  1
 23 26  1
 24 25  1
 26 27  1
 26 28  1
 26 29  1
 29 30  1
 29 46  1
 30 31  1
 30 44  2
 31 32  1
 31 36  1
 31 40  1
 32 33  1
 32 34  1
 32 35  1
 36 37  1
 36 38  1
 36 39  1
 40 41  1
 40 42  1
 40 43  1
 44 45  1
 45 46  2
M  ZZC   1 h1
M  ZZC   2 c19
M  ZZC   3 c14
M  ZZC   4 c15
M  ZZC   5 h5
M  ZZC   6 c16
M  ZZC   7 h4
M  ZZC   8 c17
M  ZZC   9 h3
M  ZZC  10 c18
M  ZZC  11 h2
M  ZZC  12 c13
M  ZZC  13 h6
M  ZZC  14 h7
M  ZZC  15 o1
M  ZZC  16 c11
M  ZZC  17 c10
M  ZZC  18 h9
M  ZZC  19 c9
M  ZZC  20 h10
M  ZZC  21 c8
M  ZZC  22 h11
M  ZZC  23 c7
M  ZZC  24 c12
M  ZZC  25 h8
M  ZZC  26 c6
M  ZZC  27 h12
M  ZZC  28 h13
M  ZZC  29 n4
M  ZZC  30 c5
M  ZZC  31 c2
M  ZZC  32 c1
M  ZZC  33 h20
M  ZZC  34 h21
M  ZZC  35 h22
M  ZZC  36 c3
M  ZZC  37 h17
M  ZZC  38 h18
M  ZZC  39 h19
M  ZZC  40 c4
M  ZZC  41 h14
M  ZZC  42 h15
M  ZZC  43 h16
M  ZZC  44 n1
M  ZZC  45 n2
M  ZZC  46 n3
M  ZZM   1 5
M  ZZI   1 1
M  ZZM   2 37
M  ZZI   2 125
M  ZZM   3 37
M  ZZI   3 124
M  ZZM   4 37
M  ZZI   4 125
M  ZZM   5 5
M  ZZI   5 1
M  ZZM   6 37
M  ZZI   6 125
M  ZZM   7 5
M  ZZI   7 1
M  ZZM   8 37
M  ZZI   8 125
M  ZZM   9 5
M  ZZI   9 1
M  ZZM  10 37
M  ZZI  10 125
M  ZZM  11 5
M  ZZI  11 1
M  ZZM  12 1
M  ZZI  12 112
M  ZZM  13 5
M  ZZI  13 1
M  ZZM  14 5
M  ZZI  14 1
M  ZZM  15 6
M  ZZI  15 59
M  ZZM  16 37
M  ZZI  16 124
M  ZZM  17 37
M  ZZI  17 125
M  ZZM  18 5
M  ZZI  18 1
M  ZZM  19 37
M  ZZI  19 125
M  ZZM  20 5
M  ZZI  20 1
M  ZZM  21 37
M  ZZI  21 125
M  ZZM  22 5
M  ZZI  22 1
M  ZZM  23 37
M  ZZI  23 124
M  ZZM  24 37
M  ZZI  24 125
M  ZZM  25 5
M  ZZI  25 1
M  ZZM  26 1
M  ZZI  26 112
M  ZZM  27 5
M  ZZI  27 1
M  ZZM  28 5
M  ZZI  28 1
M  ZZM  29 39
M  ZZI  29 215
M  ZZM  30 63
M  ZZI  30 104
M  ZZM  31 1
M  ZZI  31 110
M  ZZM  32 1
M  ZZI  32 111
M  ZZM  33 5
M  ZZI  33 1
M  ZZM  34 5
M  ZZI  34 1
M  ZZM  35 5
M  ZZI  35 1
M  ZZM  36 1
M  ZZI  36 111
M  ZZM  37 5
M  ZZI  37 1
M  ZZM  38 5
M  ZZI  38 1
M  ZZM  39 5
M  ZZI  39 1
M  ZZM  40 1
M  ZZI  40 111
M  ZZM  41 5
M  ZZI  41 1
M  ZZM  42 5
M  ZZI  42 1
M  ZZM  43 5
M  ZZI  43 1
M  ZZM  44 66
M  ZZI  44 222
M  ZZM  45 66
M  ZZI  45 222
M  ZZM  46 65
M  ZZI  46 207
M  END
> <NAME>
Z928596916

> <Score>
-25.286864

> <Natom>
46

> <Nflex>
5

> <Hbond>
-3.191716

> <Hphob>
-7.452605

> <VwInt>
-31.28816

> <Eintl>
3.888427

> <Dsolv>
12.985345

> <SolEl>
9.591779

> <mfScore>
-110.93674

> <RecConf>
1

> <molLogP>
4.259853

$$$$
Z56792395
  MOLSOFT 11211612053D

 46 48  0  0  0  0  0  0  0  0999 V2000
  -36.5721    7.1228   65.2170 O   0  0  0
  -36.0465    8.1464   66.0996 S   0  0  0
  -36.6081    9.4801   66.1034 O   0  0  0
  -36.0076    7.5593   67.7066 N   0  0  0
  -35.7832    8.2874   68.3923 H   0  0  0
  -35.5429    6.2314   68.0431 C   0  0  0
  -35.3928    5.9615   69.3900 C   0  0  0
  -35.5648    6.7395   70.1266 H   0  0  0
  -35.0259    4.7036   69.8154 C   0  0  0
  -34.8983    4.5055   70.8751 H   0  0  0
  -34.8121    3.6984   68.8977 C   0  0  0
  -35.0061    3.9418   67.5437 C   0  0  0
  -34.8839    3.1668   66.7950 H   0  0  0
  -35.3834    5.2033   67.1233 C   0  0  0
  -35.5480    5.3555   66.0646 H   0  0  0
  -34.4081    2.4788   69.4400 O   0  0  0
  -34.0883    1.4961   68.4553 C   0  0  0
  -34.9933    1.1484   67.9482 H   0  0  0
  -33.6465    0.6510   68.9808 H   0  0  0
  -33.3392    1.8603   67.7457 H   0  0  0
  -34.3265    8.3453   65.6348 C   0  0  0
  -33.3690    8.8102   66.5370 C   0  0  0
  -32.0593    8.8953   66.0714 C   0  0  0
  -31.2714    9.2553   66.7244 H   0  0  0
  -31.7331    8.5770   64.7671 C   0  0  0
  -30.7058    8.6689   64.4297 H   0  0  0
  -32.7255    8.1707   63.9054 C   0  0  0
  -34.0186    8.0208   64.3262 C   0  0  0
  -34.7804    7.6810   63.6302 H   0  0  0
  -32.4221    7.8959   62.5199 N   0  3  0
  -33.2067    8.1694   61.9158 H   0  0  0
  -32.2681    6.8888   62.4044 H   0  0  0
  -31.5777    8.3982   62.2231 H   0  0  0
  -33.7076    9.2335   67.8522 N   0  0  0
  -32.8185    8.8516   68.9504 C   0  0  0
  -31.9826    8.2106   68.6559 H   0  0  0
  -33.3988    8.3063   69.7016 H   0  0  0
  -32.3504   10.1730   69.5218 C   0  0  0
  -32.0385   10.0944   70.5677 H   0  0  0
  -31.5062   10.5603   68.9413 H   0  0  0
  -33.5613   11.0565   69.3331 C   0  0  0
  -33.3271   12.1243   69.3913 H   0  0  0
  -34.3016   10.8242   70.1055 H   0  0  0
  -34.0821   10.6455   67.9702 C   0  0  0
  -35.1638   10.7891   67.9035 H   0  0  0
  -33.6026   11.2504   67.1920 H   0  0  0
  2  1  2
  2  3  2
  2  4  1
  2 21  1
  4  5  1
  4  6  1
  6  7  1
  6 14  2
  7  8  1
  7  9  2
  9 10  1
  9 11  1
 11 12  2
 11 16  1
 12 13  1
 12 14  1
 14 15  1
 16 17  1
 17 18  1
 17 19  1
 17 20  1
 21 22  2
 21 28  1
 22 23  1
 22 34  1
 23 24  1
 23 25  2
 25 26  1
 25 27  1
 27 28  2
 27 30  1
 28 29  1
 30 31  1
 30 32  1
 30 33  1
 34 35  1
 34 44  1
 35 36  1
 35 37  1
 35 38  1
 38 39  1
 38 40  1
 38 41  1
 41 42  1
 41 43  1
 41 44  1
 44 45  1
 44 46  1
M  ZZC   1 o2
M  ZZC   2 s1
M  ZZC   3 o3
M  ZZC   4 n1
M  ZZC   5 h1
M  ZZC   6 c5
M  ZZC   7 c4
M  ZZC   8 h18
M  ZZC   9 c3
M  ZZC  10 h19
M  ZZC  11 c2
M  ZZC  12 c7
M  ZZC  13 h16
M  ZZC  14 c6
M  ZZC  15 h17
M  ZZC  16 o1
M  ZZC  17 c1
M  ZZC  18 h20
M  ZZC  19 h21
M  ZZC  20 h22
M  ZZC  21 c8
M  ZZC  22 c13
M  ZZC  23 c12
M  ZZC  24 h13
M  ZZC  25 c11
M  ZZC  26 h14
M  ZZC  27 c10
M  ZZC  28 c9
M  ZZC  29 h15
M  ZZC  30 n3
M  ZZC  31 h2
M  ZZC  32 h3
M  ZZC  33 h4
M  ZZC  34 n2
M  ZZC  35 c14
M  ZZC  36 h11
M  ZZC  37 h12
M  ZZC  38 c15
M  ZZC  39 h10
M  ZZC  40 h9
M  ZZC  41 c16
M  ZZC  42 h7
M  ZZC  43 h8
M  ZZC  44 c17
M  ZZC  45 h5
M  ZZC  46 h6
M  ZZM   1 32
M  ZZI   1 73
M  ZZM   2 18
M  ZZI   2 250
M  ZZM   3 32
M  ZZI   3 73
M  ZZM   4 43
M  ZZI   4 196
M  ZZM   5 28
M  ZZI   5 11
M  ZZM   6 37
M  ZZI   6 124
M  ZZM   7 37
M  ZZI   7 125
M  ZZM   8 5
M  ZZI   8 1
M  ZZM   9 37
M  ZZI   9 125
M  ZZM  10 5
M  ZZI  10 1
M  ZZM  11 37
M  ZZI  11 124
M  ZZM  12 37
M  ZZI  12 125
M  ZZM  13 5
M  ZZI  13 1
M  ZZM  14 37
M  ZZI  14 125
M  ZZM  15 5
M  ZZI  15 1
M  ZZM  16 6
M  ZZI  16 59
M  ZZM  17 1
M  ZZI  17 111
M  ZZM  18 5
M  ZZI  18 1
M  ZZM  19 5
M  ZZI  19 1
M  ZZM  20 5
M  ZZI  20 1
M  ZZM  21 37
M  ZZI  21 124
M  ZZM  22 37
M  ZZI  22 124
M  ZZM  23 37
M  ZZI  23 125
M  ZZM  24 5
M  ZZI  24 1
M  ZZM  25 37
M  ZZI  25 125
M  ZZM  26 5
M  ZZI  26 1
M  ZZM  27 37
M  ZZI  27 124
M  ZZM  28 37
M  ZZI  28 125
M  ZZM  29 5
M  ZZI  29 1
M  ZZM  30 34
M  ZZI  30 231
M  ZZM  31 36
M  ZZI  31 17
M  ZZM  32 36
M  ZZI  32 17
M  ZZM  33 36
M  ZZI  33 17
M  ZZM  34 40
M  ZZI  34 193
M  ZZM  35 1
M  ZZI  35 112
M  ZZM  36 5
M  ZZI  36 1
M  ZZM  37 5
M  ZZI  37 1
M  ZZM  38 1
M  ZZI  38 112
M  ZZM  39 5
M  ZZI  39 1
M  ZZM  40 5
M  ZZI  40 1
M  ZZM  41 1
M  ZZI  41 112
M  ZZM  42 5
M  ZZI  42 1
M  ZZM  43 5
M  ZZI  43 1
M  ZZM  44 1
M  ZZI  44 112
M  ZZM  45 5
M  ZZI  45 1
M  ZZM  46 5
M  ZZI  46 1
M  CHG  1  30   1
M  END
> <NAME>
Z56792395

> <Score>
-25.247504

> <Natom>
46

> <Nflex>
3

> <Hbond>
-4.687304

> <Hphob>
-6.408296

> <VwInt>
-30.269798

> <Eintl>
6.301438

> <Dsolv>
12.146627

> <SolEl>
15.55267

> <mfScore>
-98.646744

> <RecConf>
1

> <molLogP>
3.442603

$$$$
Z1601883683
  MOLSOFT 11211612053D

 46 47  0  0  1  0  0  0  0  0999 V2000
  -30.7601    9.6206   68.5470 O   0  0  0
  -31.6115    9.6252   69.7812 S   0  0  0
  -30.4727    9.7853   71.1969 C   0  0  0
  -29.8163    8.9116   71.2073 H   0  0  0
  -31.0381    9.8168   72.1306 H   0  0  0
  -29.8688   10.6905   71.0875 H   0  0  0
  -32.3947   11.2933   69.9540 C   0  0  2
  -31.6065   12.0066   70.2140 H   0  0  0
  -33.4196   11.2789   71.0819 C   0  0  0
  -34.2184   10.5542   70.8952 H   0  0  0
  -33.8688   12.2687   71.2017 H   0  0  0
  -32.9633   11.0155   72.0392 H   0  0  0
  -33.0242   11.7533   68.6335 C   0  0  0
  -32.2339   11.9912   67.9153 H   0  0  0
  -33.5966   12.6744   68.7825 H   0  0  0
  -33.9263   10.7855   68.0292 N   0  0  0
  -34.6601   10.3770   68.5867 H   0  0  0
  -33.8774   10.5498   66.6773 C   0  0  0
  -33.1437   11.1983   65.9505 O   0  0  0
  -34.6980    9.5426   66.1927 N   0  0  0
  -34.6809    9.2528   64.7672 C   0  0  0
  -33.9252    9.8515   64.2521 H   0  0  0
  -35.6600    9.5495   64.3851 H   0  0  0
  -34.4456    7.7679   64.5154 C   0  0  0
  -33.4378    7.4670   64.8229 H   0  0  0
  -34.5451    7.5450   63.4491 H   0  0  0
  -35.4089    6.9762   65.2294 O   0  0  0
  -35.3086    7.2165   66.6504 C   0  0  1
  -34.2836    6.9868   66.9670 H   0  0  0
  -35.6018    8.6892   66.9538 C   0  0  0
  -36.6184    8.9500   66.6370 H   0  0  0
  -35.5265    8.8800   68.0255 H   0  0  0
  -36.2919    6.2951   67.3787 C   0  0  0
  -36.5969    6.7465   68.3279 H   0  0  0
  -37.2036    6.1489   66.7892 H   0  0  0
  -35.6748    4.9500   67.6713 C   0  0  0
  -35.3007    4.0925   66.6460 C   0  0  0
  -35.4664    4.3722   65.6113 H   0  0  0
  -34.7090    2.8779   66.9227 C   0  0  0
  -34.4159    2.2218   66.1109 H   0  0  0
  -34.4910    2.4934   68.2280 C   0  0  0
  -34.0260    1.5365   68.4420 H   0  0  0
  -34.8720    3.3278   69.2570 C   0  0  0
  -34.7078    3.0251   70.2861 H   0  0  0
  -35.4580    4.5476   68.9821 C   0  0  0
  -35.7442    5.1901   69.8091 H   0  0  0
  2  1  2
  2  3  1
  7  2  1
  3  4  1
  3  5  1
  3  6  1
  7  8  1
  7  9  1
  7 13  1
  9 10  1
  9 11  1
  9 12  1
 13 14  1
 13 15  1
 13 16  1
 16 17  1
 16 18  1
 18 19  2
 18 20  1
 20 21  1
 20 30  1
 21 22  1
 21 23  1
 21 24  1
 24 25  1
 24 26  1
 24 27  1
 28 27  1
 28 29  1
 28 30  1
 28 33  1
 30 31  1
 30 32  1
 33 34  1
 33 35  1
 33 36  1
 36 37  1
 36 45  2
 37 38  1
 37 39  2
 39 40  1
 39 41  1
 41 42  1
 41 43  2
 43 44  1
 43 45  1
 45 46  1
M  ZZC   1 o3
M  ZZC   2 s1
M  ZZC   3 c16
M  ZZC   4 h1
M  ZZC   5 h2
M  ZZC   6 h3
M  ZZC   7 c2
M  ZZC   8 h24
M  ZZC   9 c1
M  ZZC  10 h20
M  ZZC  11 h21
M  ZZC  12 h22
M  ZZC  13 c3
M  ZZC  14 h18
M  ZZC  15 h19
M  ZZC  16 n1
M  ZZC  17 h17
M  ZZC  18 c4
M  ZZC  19 o1
M  ZZC  20 n2
M  ZZC  21 c5
M  ZZC  22 h15
M  ZZC  23 h16
M  ZZC  24 c6
M  ZZC  25 h13
M  ZZC  26 h14
M  ZZC  27 o2
M  ZZC  28 c7
M  ZZC  29 h23
M  ZZC  30 c8
M  ZZC  31 h11
M  ZZC  32 h12
M  ZZC  33 c9
M  ZZC  34 h10
M  ZZC  35 h9
M  ZZC  36 c10
M  ZZC  37 c11
M  ZZC  38 h8
M  ZZC  39 c12
M  ZZC  40 h7
M  ZZC  41 c13
M  ZZC  42 h6
M  ZZC  43 c14
M  ZZC  44 h5
M  ZZC  45 c15
M  ZZC  46 h4
M  ZZM   1 7
M  ZZI   1 80
M  ZZM   2 17
M  ZZI   2 247
M  ZZM   3 1
M  ZZI   3 111
M  ZZM   4 5
M  ZZI   4 1
M  ZZM   5 5
M  ZZI   5 1
M  ZZM   6 5
M  ZZI   6 1
M  ZZM   7 1
M  ZZI   7 113
M  ZZM   8 5
M  ZZI   8 1
M  ZZM   9 1
M  ZZI   9 111
M  ZZM  10 5
M  ZZI  10 1
M  ZZM  11 5
M  ZZI  11 1
M  ZZM  12 5
M  ZZI  12 1
M  ZZM  13 1
M  ZZI  13 112
M  ZZM  14 5
M  ZZI  14 1
M  ZZM  15 5
M  ZZI  15 1
M  ZZM  16 10
M  ZZI  16 211
M  ZZM  17 28
M  ZZI  17 11
M  ZZM  18 3
M  ZZI  18 121
M  ZZM  19 7
M  ZZI  19 81
M  ZZM  20 10
M  ZZI  20 192
M  ZZM  21 1
M  ZZI  21 112
M  ZZM  22 5
M  ZZI  22 1
M  ZZM  23 5
M  ZZI  23 1
M  ZZM  24 1
M  ZZI  24 112
M  ZZM  25 5
M  ZZI  25 1
M  ZZM  26 5
M  ZZI  26 1
M  ZZM  27 6
M  ZZI  27 65
M  ZZM  28 1
M  ZZI  28 113
M  ZZM  29 5
M  ZZI  29 1
M  ZZM  30 1
M  ZZI  30 112
M  ZZM  31 5
M  ZZI  31 1
M  ZZM  32 5
M  ZZI  32 1
M  ZZM  33 1
M  ZZI  33 112
M  ZZM  34 5
M  ZZI  34 1
M  ZZM  35 5
M  ZZI  35 1
M  ZZM  36 37
M  ZZI  36 124
M  ZZM  37 37
M  ZZI  37 125
M  ZZM  38 5
M  ZZI  38 1
M  ZZM  39 37
M  ZZI  39 125
M  ZZM  40 5
M  ZZI  40 1
M  ZZM  41 37
M  ZZI  41 125
M  ZZM  42 5
M  ZZI  42 1
M  ZZM  43 37
M  ZZI  43 125
M  ZZM  44 5
M  ZZI  44 1
M  ZZM  45 37
M  ZZI  45 125
M  ZZM  46 5
M  ZZI  46 1
M  END
> <NAME>
Z1601883683

> <Score>
-25.229653

> <Natom>
46

> <Nflex>
7

> <Hbond>
-4.203121

> <Hphob>
-7.160828

> <VwInt>
-29.369827

> <Eintl>
4.691078

> <Dsolv>
11.901551

> <SolEl>
9.766154

> <mfScore>
-65.988655

> <RecConf>
1

> <molLogP>
1.289045

$$$$
Z976533244
  MOLSOFT 11211612053D

 46 48  0  0  1  0  0  0  0  0999 V2000
  -34.4825    4.5488   65.9853 H   0  0  0
  -35.1382    4.8580   66.7912 C   0  0  0
  -36.0763    5.8548   66.5927 C   0  0  0
  -36.9577    6.2048   67.5967 C   0  0  0
  -37.7281    6.9447   67.4114 H   0  0  0
  -36.8475    5.6048   68.8363 C   0  0  0
  -37.5270    5.8811   69.6368 H   0  0  0
  -35.8853    4.6363   69.0511 C   0  0  0
  -35.8051    4.1605   70.0234 H   0  0  0
  -35.0430    4.2501   68.0267 C   0  0  0
  -34.3078    3.4685   68.1917 H   0  0  0
  -36.1584    6.4966   65.3606 O   0  0  0
  -35.0710    7.3313   65.1400 C   0  0  0
  -34.8781    8.4173   65.9741 C   0  0  0
  -35.6155    8.6682   66.7287 H   0  0  0
  -33.7218    9.1617   65.8092 C   0  0  0
  -32.8855    8.8511   64.7468 C   0  0  0
  -31.9863    9.4227   64.5481 H   0  0  0
  -33.2169    7.7921   63.9280 C   0  0  0
  -32.5913    7.5351   63.0782 H   0  0  0
  -34.2878    7.0113   64.1027 N   0  0  0
  -33.3755   10.3183   66.6845 C   0  0  0
  -32.9517   11.3089   66.1080 O   0  0  0
  -33.5310   10.2185   68.0696 N   0  0  0
  -33.9757    9.0259   68.7917 C   0  0  0
  -35.0089    9.2037   69.1100 H   0  0  0
  -33.9691    8.1507   68.1413 H   0  0  0
  -33.1014    8.7170   69.9948 C   0  0  0
  -33.5430    7.9005   70.5748 H   0  0  0
  -32.1208    8.3696   69.6508 H   0  0  0
  -32.9131    9.9398   70.8745 C   0  0  0
  -33.8669   10.2359   71.3255 H   0  0  0
  -32.2578    9.6868   71.7124 H   0  0  0
  -32.3381   11.0970   70.0588 C   0  0  1
  -31.3553   10.8151   69.6619 H   0  0  0
  -33.2700   11.4048   68.8862 C   0  0  0
  -34.2334   11.7798   69.2430 H   0  0  0
  -32.8507   12.2109   68.2761 H   0  0  0
  -32.1979   12.2650   70.8880 O   0  0  0
  -30.9730   12.2411   71.6388 C   0  0  0
  -30.8791   11.2999   72.1869 H   0  0  0
  -30.1235   12.3294   70.9537 H   0  0  0
  -30.9682   13.3916   72.6230 C   0  0  0
  -30.9849   14.3519   72.1040 H   0  0  0
  -30.0753   13.3602   73.2532 H   0  0  0
  -31.8571   13.3590   73.2595 H   0  0  0
  2  1  1
  2  3  1
  2 10  2
  3  4  2
  3 12  1
  4  5  1
  4  6  1
  6  7  1
  6  8  2
  8  9  1
  8 10  1
 10 11  1
 12 13  1
 13 14  1
 13 21  2
 14 15  1
 14 16  2
 16 17  1
 16 22  1
 17 18  1
 17 19  2
 19 20  1
 19 21  1
 22 23  2
 22 24  1
 24 25  1
 24 36  1
 25 26  1
 25 27  1
 25 28  1
 28 29  1
 28 30  1
 28 31  1
 31 32  1
 31 33  1
 34 31  1
 34 35  1
 34 36  1
 34 39  1
 36 37  1
 36 38  1
 39 40  1
 40 41  1
 40 42  1
 40 43  1
 43 44  1
 43 45  1
 43 46  1
M  ZZC   1 h1
M  ZZC   2 c19
M  ZZC   3 c14
M  ZZC   4 c15
M  ZZC   5 h5
M  ZZC   6 c16
M  ZZC   7 h4
M  ZZC   8 c17
M  ZZC   9 h3
M  ZZC  10 c18
M  ZZC  11 h2
M  ZZC  12 o3
M  ZZC  13 c12
M  ZZC  14 c13
M  ZZC  15 h6
M  ZZC  16 c9
M  ZZC  17 c10
M  ZZC  18 h8
M  ZZC  19 c11
M  ZZC  20 h7
M  ZZC  21 n2
M  ZZC  22 c8
M  ZZC  23 o2
M  ZZC  24 n1
M  ZZC  25 c6
M  ZZC  26 h11
M  ZZC  27 h12
M  ZZC  28 c5
M  ZZC  29 h13
M  ZZC  30 h14
M  ZZC  31 c4
M  ZZC  32 h15
M  ZZC  33 h16
M  ZZC  34 c3
M  ZZC  35 h22
M  ZZC  36 c7
M  ZZC  37 h10
M  ZZC  38 h9
M  ZZC  39 o1
M  ZZC  40 c2
M  ZZC  41 h17
M  ZZC  42 h18
M  ZZC  43 c1
M  ZZC  44 h19
M  ZZC  45 h20
M  ZZC  46 h21
M  ZZM   1 5
M  ZZI   1 1
M  ZZM   2 37
M  ZZI   2 125
M  ZZM   3 37
M  ZZI   3 124
M  ZZM   4 37
M  ZZI   4 125
M  ZZM   5 5
M  ZZI   5 1
M  ZZM   6 37
M  ZZI   6 125
M  ZZM   7 5
M  ZZI   7 1
M  ZZM   8 37
M  ZZI   8 125
M  ZZM   9 5
M  ZZI   9 1
M  ZZM  10 37
M  ZZI  10 125
M  ZZM  11 5
M  ZZI  11 1
M  ZZM  12 6
M  ZZI  12 59
M  ZZM  13 37
M  ZZI  13 124
M  ZZM  14 37
M  ZZI  14 125
M  ZZM  15 5
M  ZZI  15 1
M  ZZM  16 37
M  ZZI  16 124
M  ZZM  17 37
M  ZZI  17 125
M  ZZM  18 5
M  ZZI  18 1
M  ZZM  19 37
M  ZZI  19 125
M  ZZM  20 5
M  ZZI  20 1
M  ZZM  21 38
M  ZZI  21 223
M  ZZM  22 3
M  ZZI  22 121
M  ZZM  23 7
M  ZZI  23 81
M  ZZM  24 10
M  ZZI  24 192
M  ZZM  25 1
M  ZZI  25 112
M  ZZM  26 5
M  ZZI  26 1
M  ZZM  27 5
M  ZZI  27 1
M  ZZM  28 1
M  ZZI  28 112
M  ZZM  29 5
M  ZZI  29 1
M  ZZM  30 5
M  ZZI  30 1
M  ZZM  31 1
M  ZZI  31 112
M  ZZM  32 5
M  ZZI  32 1
M  ZZM  33 5
M  ZZI  33 1
M  ZZM  34 1
M  ZZI  34 113
M  ZZM  35 5
M  ZZI  35 1
M  ZZM  36 1
M  ZZI  36 112
M  ZZM  37 5
M  ZZI  37 1
M  ZZM  38 5
M  ZZI  38 1
M  ZZM  39 6
M  ZZI  39 65
M  ZZM  40 1
M  ZZI  40 112
M  ZZM  41 5
M  ZZI  41 1
M  ZZM  42 5
M  ZZI  42 1
M  ZZM  43 1
M  ZZI  43 111
M  ZZM  44 5
M  ZZI  44 1
M  ZZM  45 5
M  ZZI  45 1
M  ZZM  46 5
M  ZZI  46 1
M  END
> <NAME>
Z976533244

> <Score>
-25.143477

> <Natom>
46

> <Nflex>
4

> <Hbond>
-3.267994

> <Hphob>
-6.994907

> <VwInt>
-26.363267

> <Eintl>
8.554357

> <Dsolv>
11.059197

> <SolEl>
5.272736

> <mfScore>
-106.174112

> <RecConf>
1

> <molLogP>
2.839464

$$$$
Z991913770
  MOLSOFT 11211612053D

 47 48  0  0  1  0  0  0  0  0999 V2000
  -35.2441    6.4394   70.2748 Cl  0  0  0
  -35.2261    5.2605   69.0078 C   0  0  0
  -34.9427    3.9467   69.3225 C   0  0  0
  -34.7451    3.6658   70.3527 H   0  0  0
  -34.8867    2.9910   68.3238 C   0  0  0
  -34.5511    1.5717   68.6691 C   0  0  0
  -34.4240    0.9694   67.7679 H   0  0  0
  -35.3479    1.1248   69.2719 H   0  0  0
  -33.6079    1.5293   69.2215 H   0  0  0
  -35.1571    3.3684   67.0170 C   0  0  0
  -35.1292    2.6318   66.2198 H   0  0  0
  -35.4584    4.6802   66.7041 C   0  0  0
  -35.6439    4.9328   65.6669 H   0  0  0
  -35.4820    5.6446   67.7000 C   0  0  0
  -35.7043    7.0183   67.4433 N   0  0  0
  -35.5784    7.6374   68.2366 H   0  0  0
  -36.0025    7.5965   66.2177 C   0  0  0
  -36.3402    6.9946   65.2065 O   0  0  0
  -35.8830    9.1164   66.2522 C   0  0  0
  -36.1943    9.5342   65.2906 H   0  0  0
  -36.5984    9.4901   66.9894 H   0  0  0
  -34.5005    9.5248   66.6049 N   0  0  0
  -34.2347   10.0911   67.9491 C   0  0  0
  -35.1859   10.4191   68.3806 H   0  0  0
  -33.8654    9.2943   68.6010 H   0  0  0
  -33.2681   11.3014   67.9498 C   0  0  1
  -32.3010   11.0331   67.5209 H   0  0  0
  -33.7771   12.3541   67.1376 O   0  0  0
  -34.6110   12.6612   67.5364 H   0  0  0
  -33.0217   11.8860   69.3438 C   0  0  0
  -32.3274   12.7266   69.2502 H   0  0  0
  -33.9405   12.3277   69.7375 H   0  0  0
  -32.4661   10.8915   70.3485 C   0  0  0
  -33.2069   10.1315   70.6126 H   0  0  0
  -32.1843   11.4086   71.2700 H   0  0  0
  -31.5757   10.3901   69.9570 H   0  0  0
  -33.4410    9.0642   65.7622 C   0  0  0
  -33.6348    8.8563   64.3988 C   0  0  0
  -34.5972    9.0478   63.9405 H   0  0  0
  -32.6159    8.4227   63.5757 C   0  0  0
  -32.7995    8.2599   62.5188 H   0  0  0
  -31.3609    8.2028   64.0887 C   0  0  0
  -30.5537    7.8752   63.4406 H   0  0  0
  -31.1437    8.3843   65.4348 C   0  0  0
  -30.1597    8.1972   65.8525 H   0  0  0
  -32.1711    8.7916   66.2580 C   0  0  0
  -31.9573    8.8775   67.3162 H   0  0  0
  2  1  1
  2  3  2
  2 14  1
  3  4  1
  3  5  1
  5  6  1
  5 10  2
  6  7  1
  6  8  1
  6  9  1
 10 11  1
 10 12  1
 12 13  1
 12 14  2
 14 15  1
 15 16  1
 15 17  1
 17 18  2
 17 19  1
 19 20  1
 19 21  1
 19 22  1
 22 23  1
 22 37  1
 23 24  1
 23 25  1
 26 23  1
 26 27  1
 26 28  1
 26 30  1
 28 29  1
 30 31  1
 30 32  1
 30 33  1
 33 34  1
 33 35  1
 33 36  1
 37 38  1
 37 46  2
 38 39  1
 38 40  2
 40 41  1
 40 42  1
 42 43  1
 42 44  2
 44 45  1
 44 46  1
 46 47  1
M  ZZC   1 &Cl1
M  ZZC   2 c12
M  ZZC   3 c11
M  ZZC   4 h10
M  ZZC   5 c10
M  ZZC   6 c13
M  ZZC   7 h7
M  ZZC   8 h8
M  ZZC   9 h9
M  ZZC  10 c9
M  ZZC  11 h11
M  ZZC  12 c8
M  ZZC  13 h12
M  ZZC  14 c7
M  ZZC  15 n2
M  ZZC  16 h13
M  ZZC  17 c6
M  ZZC  18 o1
M  ZZC  19 c5
M  ZZC  20 h14
M  ZZC  21 h15
M  ZZC  22 n1
M  ZZC  23 c4
M  ZZC  24 h16
M  ZZC  25 h17
M  ZZC  26 c3
M  ZZC  27 h23
M  ZZC  28 o2
M  ZZC  29 h1
M  ZZC  30 c2
M  ZZC  31 h18
M  ZZC  32 h19
M  ZZC  33 c1
M  ZZC  34 h20
M  ZZC  35 h21
M  ZZC  36 h22
M  ZZC  37 c14
M  ZZC  38 c15
M  ZZC  39 h6
M  ZZC  40 c16
M  ZZC  41 h5
M  ZZC  42 c17
M  ZZC  43 h4
M  ZZC  44 c18
M  ZZC  45 h3
M  ZZC  46 c19
M  ZZC  47 h2
M  ZZM   1 12
M  ZZI   1 92
M  ZZM   2 37
M  ZZI   2 124
M  ZZM   3 37
M  ZZI   3 125
M  ZZM   4 5
M  ZZI   4 1
M  ZZM   5 37
M  ZZI   5 124
M  ZZM   6 1
M  ZZI   6 111
M  ZZM   7 5
M  ZZI   7 1
M  ZZM   8 5
M  ZZI   8 1
M  ZZM   9 5
M  ZZI   9 1
M  ZZM  10 37
M  ZZI  10 125
M  ZZM  11 5
M  ZZI  11 1
M  ZZM  12 37
M  ZZI  12 125
M  ZZM  13 5
M  ZZI  13 1
M  ZZM  14 37
M  ZZI  14 124
M  ZZM  15 10
M  ZZI  15 191
M  ZZM  16 28
M  ZZI  16 11
M  ZZM  17 3
M  ZZI  17 121
M  ZZM  18 7
M  ZZI  18 81
M  ZZM  19 1
M  ZZI  19 112
M  ZZM  20 5
M  ZZI  20 1
M  ZZM  21 5
M  ZZI  21 1
M  ZZM  22 40
M  ZZI  22 193
M  ZZM  23 1
M  ZZI  23 112
M  ZZM  24 5
M  ZZI  24 1
M  ZZM  25 5
M  ZZI  25 1
M  ZZM  26 1
M  ZZI  26 113
M  ZZM  27 5
M  ZZI  27 1
M  ZZM  28 6
M  ZZI  28 60
M  ZZM  29 21
M  ZZI  29 20
M  ZZM  30 1
M  ZZI  30 112
M  ZZM  31 5
M  ZZI  31 1
M  ZZM  32 5
M  ZZI  32 1
M  ZZM  33 1
M  ZZI  33 111
M  ZZM  34 5
M  ZZI  34 1
M  ZZM  35 5
M  ZZI  35 1
M  ZZM  36 5
M  ZZI  36 1
M  ZZM  37 37
M  ZZI  37 124
M  ZZM  38 37
M  ZZI  38 125
M  ZZM  39 5
M  ZZI  39 1
M  ZZM  40 37
M  ZZI  40 125
M  ZZM  41 5
M  ZZI  41 1
M  ZZM  42 37
M  ZZI  42 125
M  ZZM  43 5
M  ZZI  43 1
M  ZZM  44 37
M  ZZI  44 125
M  ZZM  45 5
M  ZZI  45 1
M  ZZM  46 37
M  ZZI  46 125
M  ZZM  47 5
M  ZZI  47 1
M  END
> <NAME>
Z991913770

> <Score>
-36.017071

> <Natom>
47

> <Nflex>
7

> <Hbond>
-4.783388

> <Hphob>
-8.146543

> <VwInt>
-32.58374

> <Eintl>
7.641601

> <Dsolv>
10.941279

> <SolEl>
2.607371

> <mfScore>
-98.335919

> <RecConf>
1

> <molLogP>
4.095675

$$$$
Z18416931
  MOLSOFT 11211612053D

 47 48  0  0  0  0  0  0  0  0999 V2000
  -34.1858   10.1364   64.7385 O   0  0  0
  -34.5498    9.9361   65.8895 C   0  0  0
  -33.7158   10.2255   67.0256 C   0  0  0
  -32.4802    9.6836   67.3341 C   0  0  0
  -31.7875    8.6610   66.5058 C   0  0  0
  -30.8549    8.3102   66.9491 H   0  0  0
  -31.5461    9.0690   65.5202 H   0  0  0
  -32.4281    7.7853   66.3636 H   0  0  0
  -32.0562   10.2488   68.5873 C   0  0  0
  -30.8440    9.9217   69.3414 C   0  0  0
  -29.8992    9.3408   68.8230 O   0  0  0
  -30.7429   10.3006   70.7953 C   0  0  0
  -30.4805   11.3575   70.8947 H   0  0  0
  -29.9561    9.7038   71.2655 H   0  0  0
  -31.6762   10.0759   71.3185 H   0  0  0
  -33.0238   11.1893   68.9312 C   0  0  0
  -33.1220   12.1769   70.0345 C   0  0  0
  -33.3923   11.6907   70.9757 H   0  0  0
  -33.8824   12.9302   69.8162 H   0  0  0
  -32.1793   12.7126   70.1677 H   0  0  0
  -34.0238   11.1321   68.0007 N   0  0  0
  -34.8442   11.7303   68.0084 H   0  0  0
  -35.9169    9.3558   66.1950 C   0  0  0
  -36.4849   10.0481   66.8138 H   0  0  0
  -36.4789    9.2047   65.2682 H   0  0  0
  -35.7647    8.1464   66.9442 O   0  0  0
  -35.9547    7.0067   66.2181 C   0  0  0
  -36.2758    6.9380   65.0400 O   0  0  0
  -35.6492    5.8467   67.0811 C   0  0  0
  -35.5332    5.9906   68.4523 C   0  0  0
  -35.6875    6.9484   68.9402 H   0  0  0
  -35.2082    4.8945   69.2242 C   0  0  0
  -35.1166    5.0430   70.2936 H   0  0  0
  -34.9682    3.6453   68.6617 C   0  0  0
  -35.1120    3.5292   67.2826 C   0  0  0
  -34.9623    2.5766   66.7876 H   0  0  0
  -35.4563    4.6095   66.4976 C   0  0  0
  -35.5543    4.4779   65.4256 H   0  0  0
  -34.5800    2.5355   69.4641 N   0  0  0
  -34.1322    1.2961   68.8323 C   0  0  0
  -34.9778    0.7464   68.4075 H   0  0  0
  -33.6459    0.6565   69.5695 H   0  0  0
  -33.3902    1.4892   68.0513 H   0  0  0
  -34.6584    2.6064   70.9249 C   0  0  0
  -33.9220    3.3124   71.3213 H   0  0  0
  -34.4520    1.6325   71.3775 H   0  0  0
  -35.6604    2.9043   71.2503 H   0  0  0
  2  1  2
  2  3  1
  2 23  1
  3  4  2
  3 21  1
  4  5  1
  4  9  1
  5  6  1
  5  7  1
  5  8  1
  9 10  1
  9 16  2
 10 11  2
 10 12  1
 12 13  1
 12 14  1
 12 15  1
 16 17  1
 16 21  1
 17 18  1
 17 19  1
 17 20  1
 21 22  1
 23 24  1
 23 25  1
 23 26  1
 26 27  1
 27 28  2
 27 29  1
 29 30  1
 29 37  2
 30 31  1
 30 32  2
 32 33  1
 32 34  1
 34 35  2
 34 39  1
 35 36  1
 35 37  1
 37 38  1
 39 40  1
 39 44  1
 40 41  1
 40 42  1
 40 43  1
 44 45  1
 44 46  1
 44 47  1
M  ZZC   1 o1
M  ZZC   2 c6
M  ZZC   3 c5
M  ZZC   4 c2
M  ZZC   5 c1
M  ZZC   6 h19
M  ZZC   7 h20
M  ZZC   8 h21
M  ZZC   9 c3
M  ZZC  10 c18
M  ZZC  11 o4
M  ZZC  12 c19
M  ZZC  13 h1
M  ZZC  14 h2
M  ZZC  15 h3
M  ZZC  16 c4
M  ZZC  17 c17
M  ZZC  18 h4
M  ZZC  19 h5
M  ZZC  20 h6
M  ZZC  21 n1
M  ZZC  22 h22
M  ZZC  23 c7
M  ZZC  24 h17
M  ZZC  25 h18
M  ZZC  26 o2
M  ZZC  27 c8
M  ZZC  28 o3
M  ZZC  29 c9
M  ZZC  30 c10
M  ZZC  31 h16
M  ZZC  32 c11
M  ZZC  33 h15
M  ZZC  34 c12
M  ZZC  35 c13
M  ZZC  36 h14
M  ZZC  37 c14
M  ZZC  38 h13
M  ZZC  39 n2
M  ZZC  40 c15
M  ZZC  41 h10
M  ZZC  42 h11
M  ZZC  43 h12
M  ZZC  44 c16
M  ZZC  45 h7
M  ZZC  46 h8
M  ZZC  47 h9
M  ZZM   1 7
M  ZZI   1 80
M  ZZM   2 3
M  ZZI   2 122
M  ZZM   3 63
M  ZZI   3 104
M  ZZM   4 64
M  ZZI   4 105
M  ZZM   5 1
M  ZZI   5 111
M  ZZM   6 5
M  ZZI   6 1
M  ZZM   7 5
M  ZZI   7 1
M  ZZM   8 5
M  ZZI   8 1
M  ZZM   9 64
M  ZZI   9 105
M  ZZM  10 3
M  ZZI  10 122
M  ZZM  11 7
M  ZZI  11 80
M  ZZM  12 1
M  ZZI  12 111
M  ZZM  13 5
M  ZZI  13 1
M  ZZM  14 5
M  ZZI  14 1
M  ZZM  15 5
M  ZZI  15 1
M  ZZM  16 63
M  ZZI  16 104
M  ZZM  17 1
M  ZZI  17 111
M  ZZM  18 5
M  ZZI  18 1
M  ZZM  19 5
M  ZZI  19 1
M  ZZM  20 5
M  ZZI  20 1
M  ZZM  21 39
M  ZZI  21 215
M  ZZM  22 23
M  ZZI  22 10
M  ZZM  23 1
M  ZZI  23 112
M  ZZM  24 5
M  ZZI  24 1
M  ZZM  25 5
M  ZZI  25 1
M  ZZM  26 6
M  ZZI  26 61
M  ZZM  27 3
M  ZZI  27 123
M  ZZM  28 7
M  ZZI  28 82
M  ZZM  29 37
M  ZZI  29 124
M  ZZM  30 37
M  ZZI  30 125
M  ZZM  31 5
M  ZZI  31 1
M  ZZM  32 37
M  ZZI  32 125
M  ZZM  33 5
M  ZZI  33 1
M  ZZM  34 37
M  ZZI  34 124
M  ZZM  35 37
M  ZZI  35 125
M  ZZM  36 5
M  ZZI  36 1
M  ZZM  37 37
M  ZZI  37 125
M  ZZM  38 5
M  ZZI  38 1
M  ZZM  39 40
M  ZZI  39 193
M  ZZM  40 1
M  ZZI  40 111
M  ZZM  41 5
M  ZZI  41 1
M  ZZM  42 5
M  ZZI  42 1
M  ZZM  43 5
M  ZZI  43 1
M  ZZM  44 1
M  ZZI  44 111
M  ZZM  45 5
M  ZZI  45 1
M  ZZM  46 5
M  ZZI  46 1
M  ZZM  47 5
M  ZZI  47 1
M  END
> <NAME>
Z18416931

> <Score>
-33.074258

> <Natom>
47

> <Nflex>
2

> <Hbond>
-6.016527

> <Hphob>
-7.272922

> <VwInt>
-30.694768

> <Eintl>
9.001014

> <Dsolv>
13.529282

> <SolEl>
9.648818

> <mfScore>
-78.124102

> <RecConf>
1

> <molLogP>
2.015093

$$$$
Z18319473
  MOLSOFT 11211612053D

 47 49  0  0  0  0  0  0  0  0999 V2000
  -30.7539    9.6865   69.7896 H   0  0  0
  -31.4443   10.4571   70.1083 C   0  0  0
  -32.4823   10.8911   69.2915 C   0  0  0
  -33.3360   11.8761   69.7542 C   0  0  0
  -34.1427   12.2438   69.1277 H   0  0  0
  -33.1585   12.4107   71.0151 C   0  0  0
  -33.8323   13.1778   71.3801 H   0  0  0
  -32.1237   11.9821   71.8173 C   0  0  0
  -31.9862   12.4139   72.8035 H   0  0  0
  -31.2643   11.0065   71.3617 C   0  0  0
  -30.4466   10.6673   71.9895 H   0  0  0
  -32.7134   10.3721   67.9945 N   0  0  0
  -33.5277   10.7199   67.5001 H   0  0  0
  -31.8885    9.4629   67.3560 C   0  0  0
  -30.8422    9.0066   67.7953 O   0  0  0
  -32.3021    9.0491   65.9871 C   0  0  0
  -33.6155    9.1174   65.5235 C   0  0  0
  -33.8987    8.7142   64.2224 C   0  0  0
  -34.8965    8.7755   63.8067 H   0  0  0
  -32.8951    8.2256   63.4129 C   0  0  0
  -33.1204    7.8967   62.4033 H   0  0  0
  -31.6024    8.1505   63.8780 C   0  0  0
  -30.8146    7.7732   63.2332 H   0  0  0
  -31.3059    8.5488   65.1621 C   0  0  0
  -30.2785    8.4760   65.5076 H   0  0  0
  -34.6003    9.6026   66.3920 O   0  0  0
  -35.9008    9.0037   66.1994 C   0  0  0
  -36.5731    9.3959   66.9663 H   0  0  0
  -36.3342    9.3376   65.2514 H   0  0  0
  -35.9188    7.4820   66.2768 C   0  0  0
  -36.3395    6.8656   65.3065 O   0  0  0
  -35.4681    6.8917   67.4703 N   0  0  0
  -35.1780    7.6797   68.6715 C   0  0  0
  -34.1268    7.5475   68.9479 H   0  0  0
  -35.8250    7.3586   69.4918 H   0  0  0
  -35.3543    8.7449   68.5295 H   0  0  0
  -35.2596    5.4737   67.5630 C   0  0  0
  -35.2425    4.6612   66.4334 C   0  0  0
  -35.3817    5.0679   65.4406 H   0  0  0
  -35.0009    3.3057   66.5306 C   0  0  0
  -34.9760    2.6954   65.6348 H   0  0  0
  -34.7831    2.7209   67.7565 C   0  0  0
  -34.5993    1.6537   67.8282 H   0  0  0
  -34.8016    3.5018   68.8883 C   0  0  0
  -34.6323    3.0458   69.8586 H   0  0  0
  -35.0286    4.8607   68.7935 C   0  0  0
  -35.0249    5.4244   69.7181 H   0  0  0
  2  1  1
  2  3  1
  2 10  2
  3  4  2
  3 12  1
  4  5  1
  4  6  1
  6  7  1
  6  8  2
  8  9  1
  8 10  1
 10 11  1
 12 13  1
 12 14  1
 14 15  2
 14 16  1
 16 17  1
 16 24  2
 17 18  2
 17 26  1
 18 19  1
 18 20  1
 20 21  1
 20 22  2
 22 23  1
 22 24  1
 24 25  1
 26 27  1
 27 28  1
 27 29  1
 27 30  1
 30 31  2
 30 32  1
 32 33  1
 32 37  1
 33 34  1
 33 35  1
 33 36  1
 37 38  2
 37 46  1
 38 39  1
 38 40  1
 40 41  1
 40 42  2
 42 43  1
 42 44  1
 44 45  1
 44 46  2
 46 47  1
M  ZZC   1 h1
M  ZZC   2 c22
M  ZZC   3 c17
M  ZZC   4 c18
M  ZZC   5 h5
M  ZZC   6 c19
M  ZZC   7 h4
M  ZZC   8 c20
M  ZZC   9 h3
M  ZZC  10 c21
M  ZZC  11 h2
M  ZZC  12 n2
M  ZZC  13 h6
M  ZZC  14 c16
M  ZZC  15 o3
M  ZZC  16 c15
M  ZZC  17 c10
M  ZZC  18 c11
M  ZZC  19 h10
M  ZZC  20 c12
M  ZZC  21 h9
M  ZZC  22 c13
M  ZZC  23 h8
M  ZZC  24 c14
M  ZZC  25 h7
M  ZZC  26 o2
M  ZZC  27 c9
M  ZZC  28 h11
M  ZZC  29 h12
M  ZZC  30 c8
M  ZZC  31 o1
M  ZZC  32 n1
M  ZZC  33 c1
M  ZZC  34 h18
M  ZZC  35 h19
M  ZZC  36 h20
M  ZZC  37 c2
M  ZZC  38 c3
M  ZZC  39 h17
M  ZZC  40 c4
M  ZZC  41 h16
M  ZZC  42 c5
M  ZZC  43 h15
M  ZZC  44 c6
M  ZZC  45 h14
M  ZZC  46 c7
M  ZZC  47 h13
M  ZZM   1 5
M  ZZI   1 1
M  ZZM   2 37
M  ZZI   2 125
M  ZZM   3 37
M  ZZI   3 124
M  ZZM   4 37
M  ZZI   4 125
M  ZZM   5 5
M  ZZI   5 1
M  ZZM   6 37
M  ZZI   6 125
M  ZZM   7 5
M  ZZI   7 1
M  ZZM   8 37
M  ZZI   8 125
M  ZZM   9 5
M  ZZI   9 1
M  ZZM  10 37
M  ZZI  10 125
M  ZZM  11 5
M  ZZI  11 1
M  ZZM  12 10
M  ZZI  12 191
M  ZZM  13 28
M  ZZI  13 11
M  ZZM  14 3
M  ZZI  14 121
M  ZZM  15 7
M  ZZI  15 81
M  ZZM  16 37
M  ZZI  16 124
M  ZZM  17 37
M  ZZI  17 124
M  ZZM  18 37
M  ZZI  18 125
M  ZZM  19 5
M  ZZI  19 1
M  ZZM  20 37
M  ZZI  20 125
M  ZZM  21 5
M  ZZI  21 1
M  ZZM  22 37
M  ZZI  22 125
M  ZZM  23 5
M  ZZI  23 1
M  ZZM  24 37
M  ZZI  24 125
M  ZZM  25 5
M  ZZI  25 1
M  ZZM  26 6
M  ZZI  26 59
M  ZZM  27 1
M  ZZI  27 112
M  ZZM  28 5
M  ZZI  28 1
M  ZZM  29 5
M  ZZI  29 1
M  ZZM  30 3
M  ZZI  30 121
M  ZZM  31 7
M  ZZI  31 81
M  ZZM  32 10
M  ZZI  32 192
M  ZZM  33 1
M  ZZI  33 111
M  ZZM  34 5
M  ZZI  34 1
M  ZZM  35 5
M  ZZI  35 1
M  ZZM  36 5
M  ZZI  36 1
M  ZZM  37 37
M  ZZI  37 124
M  ZZM  38 37
M  ZZI  38 125
M  ZZM  39 5
M  ZZI  39 1
M  ZZM  40 37
M  ZZI  40 125
M  ZZM  41 5
M  ZZI  41 1
M  ZZM  42 37
M  ZZI  42 125
M  ZZM  43 5
M  ZZI  43 1
M  ZZM  44 37
M  ZZI  44 125
M  ZZM  45 5
M  ZZI  45 1
M  ZZM  46 37
M  ZZI  46 125
M  ZZM  47 5
M  ZZI  47 1
M  END
> <NAME>
Z18319473

> <Score>
-32.389732

> <Natom>
47

> <Nflex>
5

> <Hbond>
-2.397707

> <Hphob>
-8.109028

> <VwInt>
-32.552648

> <Eintl>
8.549368

> <Dsolv>
9.209712

> <SolEl>
2.658909

> <mfScore>
-106.751979

> <RecConf>
1

> <molLogP>
3.674731

$$$$
Z28129268
  MOLSOFT 11211612053D

 47 48  0  0  1  0  0  0  0  0999 V2000
  -32.9884   12.7753   69.9269 Cl  0  0  0
  -33.4421   11.5046   68.8560 C   0  0  0
  -33.4490   10.2053   69.3125 C   0  0  0
  -33.1684    9.9783   70.3364 H   0  0  0
  -33.8205    9.1879   68.4602 C   0  0  0
  -33.8229    8.1683   68.8355 H   0  0  0
  -34.1922    9.4560   67.1472 C   0  0  0
  -34.1786   10.7696   66.7055 C   0  0  0
  -34.4728   10.9978   65.6875 H   0  0  0
  -33.8018   11.7910   67.5561 C   0  0  0
  -33.7987   12.8165   67.2059 H   0  0  0
  -34.6535    8.3185   66.2688 C   0  0  2
  -34.1326    7.4219   66.6228 H   0  0  0
  -34.2807    8.4431   64.8687 N   0  0  0
  -34.9253    8.8329   64.1948 H   0  0  0
  -33.0617    8.0279   64.4270 C   0  0  0
  -32.1367    7.6972   65.1455 O   0  0  0
  -32.9817    7.9828   63.0781 N   0  0  0
  -32.1374    7.6141   62.6573 H   0  0  0
  -33.7691    8.1624   62.4697 H   0  0  0
  -36.1625    8.1279   66.4182 C   0  0  0
  -36.5447    8.6351   67.3073 H   0  0  0
  -36.7301    8.5041   65.5599 H   0  0  0
  -36.3853    6.6493   66.5593 C   0  0  0
  -36.6396    5.9707   65.5774 O   0  0  0
  -36.2012    6.2337   67.8692 N   0  0  0
  -36.3325    6.9507   68.5694 H   0  0  0
  -35.8632    4.9477   68.3836 C   0  0  0
  -36.0389    4.7693   69.7627 C   0  0  0
  -36.6660    5.8231   70.6338 C   0  0  0
  -36.0036    6.6894   70.7318 H   0  0  0
  -36.8580    5.4403   71.6403 H   0  0  0
  -37.6335    6.1355   70.2286 H   0  0  0
  -35.6347    3.5927   70.3709 C   0  0  0
  -35.7682    3.4604   71.4409 H   0  0  0
  -35.0645    2.5744   69.6401 C   0  0  0
  -34.6380    1.3070   70.3127 C   0  0  0
  -34.0150    0.7081   69.6412 H   0  0  0
  -35.5062    0.7003   70.5837 H   0  0  0
  -34.0702    1.5384   71.2182 H   0  0  0
  -34.9272    2.7299   68.2780 C   0  0  0
  -34.4981    1.9153   67.7014 H   0  0  0
  -35.2964    3.9009   67.6336 C   0  0  0
  -35.0201    3.9473   66.1616 C   0  0  0
  -34.5310    4.8822   65.8794 H   0  0  0
  -35.9431    3.7976   65.5975 H   0  0  0
  -34.3359    3.1451   65.8698 H   0  0  0
  2  1  1
  2  3  2
  2 10  1
  3  4  1
  3  5  1
  5  6  1
  5  7  2
  7  8  1
 12  7  1
  8  9  1
  8 10  2
 10 11  1
 12 13  1
 12 14  1
 12 21  1
 14 15  1
 14 16  1
 16 17  2
 16 18  1
 18 19  1
 18 20  1
 21 22  1
 21 23  1
 21 24  1
 24 25  2
 24 26  1
 26 27  1
 26 28  1
 28 29  1
 28 43  2
 29 30  1
 29 34  2
 30 31  1
 30 32  1
 30 33  1
 34 35  1
 34 36  1
 36 37  1
 36 41  2
 37 38  1
 37 39  1
 37 40  1
 41 42  1
 41 43  1
 43 44  1
 44 45  1
 44 46  1
 44 47  1
M  ZZC   1 &Cl1
M  ZZC   2 c15
M  ZZC   3 c14
M  ZZC   4 h9
M  ZZC   5 c13
M  ZZC   6 h10
M  ZZC   7 c12
M  ZZC   8 c17
M  ZZC   9 h7
M  ZZC  10 c16
M  ZZC  11 h8
M  ZZC  12 c11
M  ZZC  13 h22
M  ZZC  14 n2
M  ZZC  15 h6
M  ZZC  16 c18
M  ZZC  17 o2
M  ZZC  18 n3
M  ZZC  19 h4
M  ZZC  20 h5
M  ZZC  21 c10
M  ZZC  22 h11
M  ZZC  23 h12
M  ZZC  24 c9
M  ZZC  25 o1
M  ZZC  26 n1
M  ZZC  27 h13
M  ZZC  28 c5
M  ZZC  29 c4
M  ZZC  30 c19
M  ZZC  31 h1
M  ZZC  32 h2
M  ZZC  33 h3
M  ZZC  34 c3
M  ZZC  35 h18
M  ZZC  36 c2
M  ZZC  37 c1
M  ZZC  38 h19
M  ZZC  39 h20
M  ZZC  40 h21
M  ZZC  41 c7
M  ZZC  42 h17
M  ZZC  43 c6
M  ZZC  44 c8
M  ZZC  45 h14
M  ZZC  46 h15
M  ZZC  47 h16
M  ZZM   1 12
M  ZZI   1 92
M  ZZM   2 37
M  ZZI   2 124
M  ZZM   3 37
M  ZZI   3 125
M  ZZM   4 5
M  ZZI   4 1
M  ZZM   5 37
M  ZZI   5 125
M  ZZM   6 5
M  ZZI   6 1
M  ZZM   7 37
M  ZZI   7 124
M  ZZM   8 37
M  ZZI   8 125
M  ZZM   9 5
M  ZZI   9 1
M  ZZM  10 37
M  ZZI  10 125
M  ZZM  11 5
M  ZZI  11 1
M  ZZM  12 1
M  ZZI  12 113
M  ZZM  13 5
M  ZZI  13 1
M  ZZM  14 10
M  ZZI  14 211
M  ZZM  15 28
M  ZZI  15 11
M  ZZM  16 3
M  ZZI  16 121
M  ZZM  17 7
M  ZZI  17 81
M  ZZM  18 10
M  ZZI  18 212
M  ZZM  19 28
M  ZZI  19 11
M  ZZM  20 28
M  ZZI  20 11
M  ZZM  21 1
M  ZZI  21 112
M  ZZM  22 5
M  ZZI  22 1
M  ZZM  23 5
M  ZZI  23 1
M  ZZM  24 3
M  ZZI  24 121
M  ZZM  25 7
M  ZZI  25 81
M  ZZM  26 10
M  ZZI  26 191
M  ZZM  27 28
M  ZZI  27 11
M  ZZM  28 37
M  ZZI  28 124
M  ZZM  29 37
M  ZZI  29 124
M  ZZM  30 1
M  ZZI  30 111
M  ZZM  31 5
M  ZZI  31 1
M  ZZM  32 5
M  ZZI  32 1
M  ZZM  33 5
M  ZZI  33 1
M  ZZM  34 37
M  ZZI  34 125
M  ZZM  35 5
M  ZZI  35 1
M  ZZM  36 37
M  ZZI  36 124
M  ZZM  37 1
M  ZZI  37 111
M  ZZM  38 5
M  ZZI  38 1
M  ZZM  39 5
M  ZZI  39 1
M  ZZM  40 5
M  ZZI  40 1
M  ZZM  41 37
M  ZZI  41 125
M  ZZM  42 5
M  ZZI  42 1
M  ZZM  43 37
M  ZZI  43 124
M  ZZM  44 1
M  ZZI  44 111
M  ZZM  45 5
M  ZZI  45 1
M  ZZM  46 5
M  ZZI  46 1
M  ZZM  47 5
M  ZZI  47 1
M  END
> <NAME>
Z28129268

> <Score>
-31.626454

> <Natom>
47

> <Nflex>
5

> <Hbond>
-5.754989

> <Hphob>
-6.634783

> <VwInt>
-31.1404

> <Eintl>
9.748017

> <Dsolv>
13.617152

> <SolEl>
8.040164

> <mfScore>
-93.201659

> <RecConf>
1

> <molLogP>
3.674637

$$$$
Z846964938
  MOLSOFT 11211612053D

 47 50  0  0  1  0  0  0  0  0999 V2000
  -34.4126    7.8160   62.1738 H   0  0  0
  -34.7394    7.8612   63.0913 O   0  0  0
  -33.7472    7.3193   63.9606 C   0  0  1
  -33.5495    6.3074   63.5986 H   0  0  0
  -32.4538    8.1481   63.8720 C   0  0  0
  -31.6133    7.6062   64.3087 H   0  0  0
  -32.2036    8.2981   62.8171 H   0  0  0
  -32.6005    9.4765   64.4724 N   0  0  0
  -33.2108   10.1530   64.0219 H   0  0  0
  -32.3148    9.7822   65.8139 C   0  0  0
  -31.5347    8.9780   66.6361 C   0  0  0
  -31.0404    8.0936   66.2570 H   0  0  0
  -31.3290    9.1946   67.9408 N   0  0  0
  -31.9541   10.2720   68.4357 C   0  0  0
  -32.7073   11.1167   67.6145 C   0  0  0
  -32.8572   10.9020   66.2939 N   0  0  0
  -33.3340   12.2051   68.1909 C   0  0  0
  -33.9263   12.8625   67.5654 H   0  0  0
  -33.2308   12.4658   69.5402 C   0  0  0
  -33.7318   13.3245   69.9677 H   0  0  0
  -32.4871   11.6373   70.3458 C   0  0  0
  -32.3980   11.8425   71.4082 H   0  0  0
  -31.8535   10.5483   69.7883 C   0  0  0
  -31.2608    9.8939   70.4191 H   0  0  0
  -34.3475    7.2496   65.3639 C   0  0  0
  -34.8781    8.1786   65.6040 H   0  0  0
  -33.5580    7.0740   66.0991 H   0  0  0
  -35.2995    6.1721   65.4080 O   0  0  0
  -35.2905    5.5974   66.6751 C   0  0  0
  -35.4970    6.3620   67.8124 C   0  0  0
  -35.6892    7.4279   67.7426 H   0  0  0
  -35.4746    5.7514   69.0499 C   0  0  0
  -35.6363    6.3460   69.9435 H   0  0  0
  -35.2260    4.3937   69.1403 C   0  0  0
  -35.0438    3.6241   68.0058 C   0  0  0
  -35.1017    4.2312   66.7602 C   0  0  0
  -34.9802    3.6449   65.8545 H   0  0  0
  -34.8804    2.1440   68.1413 C   0  0  0
  -34.3191    1.7413   67.2918 H   0  0  0
  -35.8691    1.6802   68.1472 H   0  0  0
  -34.1636    1.8009   69.4273 C   0  0  0
  -33.1144    2.0980   69.3676 H   0  0  0
  -34.1937    0.7204   69.5916 H   0  0  0
  -34.7739    2.4948   70.6184 C   0  0  0
  -34.8053    1.9769   71.7234 O   0  0  0
  -35.1900    3.7871   70.4066 N   0  0  0
  -35.4756    4.3209   71.2188 H   0  0  0
  2  1  1
  3  2  1
  3  4  1
  3  5  1
  3 25  1
  5  6  1
  5  7  1
  5  8  1
  8  9  1
  8 10  1
 10 11  1
 10 16  2
 11 12  1
 11 13  2
 13 14  1
 14 15  2
 14 23  1
 15 16  1
 15 17  1
 17 18  1
 17 19  2
 19 20  1
 19 21  1
 21 22  1
 21 23  2
 23 24  1
 25 26  1
 25 27  1
 25 28  1
 28 29  1
 29 30  1
 29 36  2
 30 31  1
 30 32  2
 32 33  1
 32 34  1
 34 35  2
 34 46  1
 35 36  1
 35 38  1
 36 37  1
 38 39  1
 38 40  1
 38 41  1
 41 42  1
 41 43  1
 41 44  1
 44 45  2
 44 46  1
 46 47  1
M  ZZC   1 h1
M  ZZC   2 o3
M  ZZC   3 c10
M  ZZC   4 h20
M  ZZC   5 c9
M  ZZC   6 h12
M  ZZC   7 h13
M  ZZC   8 n3
M  ZZC   9 h14
M  ZZC  10 c8
M  ZZC  11 c7
M  ZZC  12 h15
M  ZZC  13 n1
M  ZZC  14 c5
M  ZZC  15 c4
M  ZZC  16 n2
M  ZZC  17 c3
M  ZZC  18 h17
M  ZZC  19 c2
M  ZZC  20 h18
M  ZZC  21 c1
M  ZZC  22 h19
M  ZZC  23 c6
M  ZZC  24 h16
M  ZZC  25 c11
M  ZZC  26 h10
M  ZZC  27 h11
M  ZZC  28 o1
M  ZZC  29 c12
M  ZZC  30 c13
M  ZZC  31 h9
M  ZZC  32 c14
M  ZZC  33 h8
M  ZZC  34 c15
M  ZZC  35 c16
M  ZZC  36 c17
M  ZZC  37 h7
M  ZZC  38 c18
M  ZZC  39 h5
M  ZZC  40 h6
M  ZZC  41 c19
M  ZZC  42 h3
M  ZZC  43 h4
M  ZZC  44 c20
M  ZZC  45 o2
M  ZZC  46 n4
M  ZZC  47 h2
M  ZZM   1 21
M  ZZI   1 20
M  ZZM   2 6
M  ZZI   2 60
M  ZZM   3 1
M  ZZI   3 113
M  ZZM   4 5
M  ZZI   4 1
M  ZZM   5 1
M  ZZI   5 112
M  ZZM   6 5
M  ZZI   6 1
M  ZZM   7 5
M  ZZI   7 1
M  ZZM   8 40
M  ZZI   8 194
M  ZZM   9 28
M  ZZI   9 11
M  ZZM  10 37
M  ZZI  10 124
M  ZZM  11 37
M  ZZI  11 125
M  ZZM  12 5
M  ZZI  12 1
M  ZZM  13 38
M  ZZI  13 223
M  ZZM  14 37
M  ZZI  14 124
M  ZZM  15 37
M  ZZI  15 124
M  ZZM  16 38
M  ZZI  16 223
M  ZZM  17 37
M  ZZI  17 125
M  ZZM  18 5
M  ZZI  18 1
M  ZZM  19 37
M  ZZI  19 125
M  ZZM  20 5
M  ZZI  20 1
M  ZZM  21 37
M  ZZI  21 125
M  ZZM  22 5
M  ZZI  22 1
M  ZZM  23 37
M  ZZI  23 125
M  ZZM  24 5
M  ZZI  24 1
M  ZZM  25 1
M  ZZI  25 112
M  ZZM  26 5
M  ZZI  26 1
M  ZZM  27 5
M  ZZI  27 1
M  ZZM  28 6
M  ZZI  28 59
M  ZZM  29 37
M  ZZI  29 124
M  ZZM  30 37
M  ZZI  30 125
M  ZZM  31 5
M  ZZI  31 1
M  ZZM  32 37
M  ZZI  32 125
M  ZZM  33 5
M  ZZI  33 1
M  ZZM  34 37
M  ZZI  34 124
M  ZZM  35 37
M  ZZI  35 124
M  ZZM  36 37
M  ZZI  36 125
M  ZZM  37 5
M  ZZI  37 1
M  ZZM  38 1
M  ZZI  38 112
M  ZZM  39 5
M  ZZI  39 1
M  ZZM  40 5
M  ZZI  40 1
M  ZZM  41 1
M  ZZI  41 112
M  ZZM  42 5
M  ZZI  42 1
M  ZZM  43 5
M  ZZI  43 1
M  ZZM  44 3
M  ZZI  44 121
M  ZZM  45 7
M  ZZI  45 81
M  ZZM  46 10
M  ZZI  46 191
M  ZZM  47 28
M  ZZI  47 11
M  END
> <NAME>
Z846964938

> <Score>
-31.247953

> <Natom>
47

> <Nflex>
5

> <Hbond>
-5.878029

> <Hphob>
-7.279255

> <VwInt>
-29.891271

> <Eintl>
8.612637

> <Dsolv>
15.150031

> <SolEl>
6.105012

> <mfScore>
-92.199765

> <RecConf>
1

> <molLogP>
1.906227

$$$$
Z915955450
  MOLSOFT 11211612053D

 47 49  0  0  0  0  0  0  0  0999 V2000
  -33.9542    1.1656   68.9827 Br  0  0  0
  -34.7156    2.7889   68.3639 C   0  0  0
  -34.7999    3.0336   67.0092 C   0  0  0
  -34.4222    2.3138   66.2900 H   0  0  0
  -35.3893    4.1987   66.5652 C   0  0  0
  -35.4652    4.3767   65.4983 H   0  0  0
  -35.8958    5.1283   67.4629 C   0  0  0
  -35.7845    4.8748   68.8232 C   0  0  0
  -36.1718    5.5840   69.5490 H   0  0  0
  -35.1976    3.7084   69.2731 C   0  0  0
  -35.1309    3.5170   70.3394 H   0  0  0
  -36.5802    6.3754   66.9678 C   0  0  0
  -37.4049    6.1252   66.2951 H   0  0  0
  -37.0112    6.9280   67.8066 H   0  0  0
  -35.6418    7.2363   66.3189 O   0  0  0
  -35.7542    7.0805   64.9231 N   0  0  0
  -34.7455    7.6561   64.3471 C   0  0  0
  -34.5434    7.5722   62.9966 N   0  0  0
  -33.8019    8.0656   62.5061 H   0  0  0
  -35.2091    7.0716   62.4212 H   0  0  0
  -33.7508    8.4169   65.1354 C   0  0  0
  -34.1586    9.4625   65.9518 C   0  0  0
  -35.2058    9.7493   65.9904 H   0  0  0
  -33.2226   10.1210   66.7332 C   0  0  0
  -31.8959    9.7238   66.6584 C   0  0  0
  -31.1631   10.2104   67.2915 H   0  0  0
  -31.4904    8.7151   65.8090 C   0  0  0
  -30.4444    8.4280   65.7654 H   0  0  0
  -32.4184    8.0605   65.0310 C   0  0  0
  -32.1052    7.2566   64.3728 H   0  0  0
  -33.6176   11.2483   67.6476 C   0  0  0
  -33.2245   12.1707   67.2054 H   0  0  0
  -34.7076   11.3598   67.6797 H   0  0  0
  -33.0689   11.0664   69.0022 N   0  0  0
  -33.1065   12.3290   69.7559 C   0  0  0
  -34.1278   12.7156   69.7951 H   0  0  0
  -32.4963   13.0819   69.2496 H   0  0  0
  -32.5744   12.1248   71.1708 C   0  0  0
  -32.6665   13.0508   71.7443 H   0  0  0
  -31.5134   11.8497   71.1616 H   0  0  0
  -33.3215   11.1157   71.8602 O   0  0  0
  -33.2313    9.8737   71.1533 C   0  0  0
  -33.8083    9.1303   71.7108 H   0  0  0
  -32.1880    9.5376   71.1405 H   0  0  0
  -33.7888   10.0114   69.7416 C   0  0  0
  -33.6965    9.0460   69.2347 H   0  0  0
  -34.8552   10.2509   69.7934 H   0  0  0
  2  1  1
  2  3  1
  2 10  2
  3  4  1
  3  5  2
  5  6  1
  5  7  1
  7  8  2
  7 12  1
  8  9  1
  8 10  1
 10 11  1
 12 13  1
 12 14  1
 12 15  1
 15 16  1
 17 16  2
 17 18  1
 17 21  1
 18 19  1
 18 20  1
 21 22  1
 21 29  2
 22 23  1
 22 24  2
 24 25  1
 24 31  1
 25 26  1
 25 27  2
 27 28  1
 27 29  1
 29 30  1
 31 32  1
 31 33  1
 31 34  1
 34 35  1
 34 45  1
 35 36  1
 35 37  1
 35 38  1
 38 39  1
 38 40  1
 38 41  1
 41 42  1
 42 43  1
 42 44  1
 42 45  1
 45 46  1
 45 47  1
M  ZZC   1 &Br1
M  ZZC   2 c12
M  ZZC   3 c11
M  ZZC   4 h15
M  ZZC   5 c10
M  ZZC   6 h16
M  ZZC   7 c9
M  ZZC   8 c14
M  ZZC   9 h13
M  ZZC  10 c13
M  ZZC  11 h14
M  ZZC  12 c8
M  ZZC  13 h17
M  ZZC  14 h18
M  ZZC  15 o1
M  ZZC  16 n1
M  ZZC  17 c7
M  ZZC  18 n2
M  ZZC  19 h11
M  ZZC  20 h12
M  ZZC  21 c5
M  ZZC  22 c4
M  ZZC  23 h20
M  ZZC  24 c3
M  ZZC  25 c2
M  ZZC  26 h21
M  ZZC  27 c1
M  ZZC  28 h22
M  ZZC  29 c6
M  ZZC  30 h19
M  ZZC  31 c15
M  ZZC  32 h10
M  ZZC  33 h9
M  ZZC  34 n3
M  ZZC  35 c16
M  ZZC  36 h7
M  ZZC  37 h8
M  ZZC  38 c17
M  ZZC  39 h5
M  ZZC  40 h6
M  ZZC  41 o2
M  ZZC  42 c18
M  ZZC  43 h3
M  ZZC  44 h4
M  ZZC  45 c19
M  ZZC  46 h1
M  ZZC  47 h2
M  ZZM   1 13
M  ZZI   1 95
M  ZZM   2 37
M  ZZI   2 124
M  ZZM   3 37
M  ZZI   3 125
M  ZZM   4 5
M  ZZI   4 1
M  ZZM   5 37
M  ZZI   5 125
M  ZZM   6 5
M  ZZI   6 1
M  ZZM   7 37
M  ZZI   7 124
M  ZZM   8 37
M  ZZI   8 125
M  ZZM   9 5
M  ZZI   9 1
M  ZZM  10 37
M  ZZI  10 125
M  ZZM  11 5
M  ZZI  11 1
M  ZZM  12 1
M  ZZI  12 112
M  ZZM  13 5
M  ZZI  13 1
M  ZZM  14 5
M  ZZI  14 1
M  ZZM  15 6
M  ZZI  15 65
M  ZZM  16 9
M  ZZI  16 220
M  ZZM  17 3
M  ZZI  17 121
M  ZZM  18 40
M  ZZI  18 224
M  ZZM  19 28
M  ZZI  19 11
M  ZZM  20 28
M  ZZI  20 11
M  ZZM  21 37
M  ZZI  21 124
M  ZZM  22 37
M  ZZI  22 125
M  ZZM  23 5
M  ZZI  23 1
M  ZZM  24 37
M  ZZI  24 124
M  ZZM  25 37
M  ZZI  25 125
M  ZZM  26 5
M  ZZI  26 1
M  ZZM  27 37
M  ZZI  27 125
M  ZZM  28 5
M  ZZI  28 1
M  ZZM  29 37
M  ZZI  29 125
M  ZZM  30 5
M  ZZI  30 1
M  ZZM  31 1
M  ZZI  31 112
M  ZZM  32 5
M  ZZI  32 1
M  ZZM  33 5
M  ZZI  33 1
M  ZZM  34 8
M  ZZI  34 216
M  ZZM  35 1
M  ZZI  35 112
M  ZZM  36 5
M  ZZI  36 1
M  ZZM  37 5
M  ZZI  37 1
M  ZZM  38 1
M  ZZI  38 112
M  ZZM  39 5
M  ZZI  39 1
M  ZZM  40 5
M  ZZI  40 1
M  ZZM  41 6
M  ZZI  41 65
M  ZZM  42 1
M  ZZI  42 112
M  ZZM  43 5
M  ZZI  43 1
M  ZZM  44 5
M  ZZI  44 1
M  ZZM  45 1
M  ZZI  45 112
M  ZZM  46 5
M  ZZI  46 1
M  ZZM  47 5
M  ZZI  47 1
M  END
> <NAME>
Z915955450

> <Score>
-29.333957

> <Natom>
47

> <Nflex>
4

> <Hbond>
-4.316481

> <Hphob>
-6.999466

> <VwInt>
-29.931408

> <Eintl>
7.667527

> <Dsolv>
12.100182

> <SolEl>
7.170689

> <mfScore>
-104.512259

> <RecConf>
1

> <molLogP>
3.541866

$$$$
Z241938168
  MOLSOFT 11211612053D

 47 49  0  0  0  0  0  0  0  0999 V2000
  -31.8043    8.7914   63.0013 S   0  0  0
  -33.1047    8.1458   63.8142 C   0  0  0
  -34.2599    7.7358   63.2296 N   0  0  0
  -34.4837    7.7769   62.2407 H   0  0  0
  -35.0971    7.1759   64.1449 N   0  0  0
  -34.4493    7.2668   65.2639 C   0  0  0
  -34.9390    6.6898   66.5386 C   0  0  0
  -35.1220    7.4675   67.6712 C   0  0  0
  -34.9316    8.5361   67.6543 H   0  0  0
  -35.5751    6.8733   68.8356 C   0  0  0
  -35.6927    7.4945   69.7156 H   0  0  0
  -35.8538    5.5091   68.8564 C   0  0  0
  -35.6611    4.7453   67.7224 C   0  0  0
  -35.8681    3.6795   67.7431 H   0  0  0
  -35.2227    5.3342   66.5557 C   0  0  0
  -35.0906    4.7237   65.6675 H   0  0  0
  -36.3304    4.8096   69.9689 O   0  0  0
  -36.8971    5.6459   70.9863 C   0  0  0
  -37.6591    6.3019   70.5528 H   0  0  0
  -36.1143    6.2397   71.4703 H   0  0  0
  -37.5504    4.7514   72.0195 C   0  0  0
  -38.0192    5.3437   72.8104 H   0  0  0
  -36.8138    4.0792   72.4692 H   0  0  0
  -38.3115    4.1171   71.5576 H   0  0  0
  -33.2211    7.8940   65.1483 N   0  0  0
  -32.2034    8.1521   66.1591 C   0  0  0
  -32.2948    7.3950   66.9374 H   0  0  0
  -31.2027    8.1023   65.7203 H   0  0  0
  -32.3803    9.5226   66.7846 C   0  0  0
  -32.7654   10.4950   66.1457 O   0  0  0
  -32.0166    9.5007   68.1210 N   0  0  0
  -31.5311    8.6906   68.4946 H   0  0  0
  -32.2665   10.5210   69.0612 C   0  0  0
  -33.0155   11.6433   68.7513 C   0  0  0
  -33.4234   11.8093   67.7611 H   0  0  0
  -33.2769   12.5741   69.7273 C   0  0  0
  -33.8714   13.4405   69.4761 H   0  0  0
  -32.8026   12.4036   71.0100 C   0  0  0
  -33.0320   13.1396   71.7747 H   0  0  0
  -32.0381   11.3011   71.3259 C   0  0  0
  -31.6804   11.2058   72.3441 H   0  0  0
  -31.7680   10.3507   70.3473 C   0  0  0
  -31.0118    9.1907   70.5723 O   0  0  0
  -30.4073    9.1432   71.8700 C   0  0  0
  -29.7880    8.2440   71.9156 H   0  0  0
  -31.1660    9.0577   72.6547 H   0  0  0
  -29.7493   10.0034   72.0333 H   0  0  0
  2  1  2
  2  3  1
  2 25  1
  3  4  1
  3  5  1
  5  6  2
  6  7  1
  6 25  1
  7  8  2
  7 15  1
  8  9  1
  8 10  1
 10 11  1
 10 12  2
 12 13  1
 12 17  1
 13 14  1
 13 15  2
 15 16  1
 17 18  1
 18 19  1
 18 20  1
 18 21  1
 21 22  1
 21 23  1
 21 24  1
 25 26  1
 26 27  1
 26 28  1
 26 29  1
 29 30  2
 29 31  1
 31 32  1
 31 33  1
 33 34  2
 33 42  1
 34 35  1
 34 36  1
 36 37  1
 36 38  2
 38 39  1
 38 40  1
 40 41  1
 40 42  2
 42 43  1
 43 44  1
 44 45  1
 44 46  1
 44 47  1
M  ZZC   1 s1
M  ZZC   2 c10
M  ZZC   3 n2
M  ZZC   4 h20
M  ZZC   5 n1
M  ZZC   6 c9
M  ZZC   7 c6
M  ZZC   8 c5
M  ZZC   9 h13
M  ZZC  10 c4
M  ZZC  11 h14
M  ZZC  12 c3
M  ZZC  13 c8
M  ZZC  14 h11
M  ZZC  15 c7
M  ZZC  16 h12
M  ZZC  17 o1
M  ZZC  18 c2
M  ZZC  19 h15
M  ZZC  20 h16
M  ZZC  21 c1
M  ZZC  22 h17
M  ZZC  23 h18
M  ZZC  24 h19
M  ZZC  25 n3
M  ZZC  26 c11
M  ZZC  27 h10
M  ZZC  28 h9
M  ZZC  29 c12
M  ZZC  30 o2
M  ZZC  31 n4
M  ZZC  32 h8
M  ZZC  33 c13
M  ZZC  34 c14
M  ZZC  35 h7
M  ZZC  36 c15
M  ZZC  37 h6
M  ZZC  38 c16
M  ZZC  39 h5
M  ZZC  40 c17
M  ZZC  41 h4
M  ZZC  42 c18
M  ZZC  43 o3
M  ZZC  44 c19
M  ZZC  45 h1
M  ZZC  46 h2
M  ZZC  47 h3
M  ZZM   1 16
M  ZZI   1 246
M  ZZM   2 3
M  ZZI   2 121
M  ZZM   3 10
M  ZZI   3 191
M  ZZM   4 28
M  ZZI   4 11
M  ZZM   5 9
M  ZZI   5 220
M  ZZM   6 3
M  ZZI   6 121
M  ZZM   7 37
M  ZZI   7 124
M  ZZM   8 37
M  ZZI   8 125
M  ZZM   9 5
M  ZZI   9 1
M  ZZM  10 37
M  ZZI  10 125
M  ZZM  11 5
M  ZZI  11 1
M  ZZM  12 37
M  ZZI  12 124
M  ZZM  13 37
M  ZZI  13 125
M  ZZM  14 5
M  ZZI  14 1
M  ZZM  15 37
M  ZZI  15 125
M  ZZM  16 5
M  ZZI  16 1
M  ZZM  17 6
M  ZZI  17 59
M  ZZM  18 1
M  ZZI  18 112
M  ZZM  19 5
M  ZZI  19 1
M  ZZM  20 5
M  ZZI  20 1
M  ZZM  21 1
M  ZZI  21 111
M  ZZM  22 5
M  ZZI  22 1
M  ZZM  23 5
M  ZZI  23 1
M  ZZM  24 5
M  ZZI  24 1
M  ZZM  25 10
M  ZZI  25 192
M  ZZM  26 1
M  ZZI  26 112
M  ZZM  27 5
M  ZZI  27 1
M  ZZM  28 5
M  ZZI  28 1
M  ZZM  29 3
M  ZZI  29 121
M  ZZM  30 7
M  ZZI  30 81
M  ZZM  31 10
M  ZZI  31 191
M  ZZM  32 28
M  ZZI  32 11
M  ZZM  33 37
M  ZZI  33 124
M  ZZM  34 37
M  ZZI  34 125
M  ZZM  35 5
M  ZZI  35 1
M  ZZM  36 37
M  ZZI  36 125
M  ZZM  37 5
M  ZZI  37 1
M  ZZM  38 37
M  ZZI  38 125
M  ZZM  39 5
M  ZZI  39 1
M  ZZM  40 37
M  ZZI  40 125
M  ZZM  41 5
M  ZZI  41 1
M  ZZM  42 37
M  ZZI  42 124
M  ZZM  43 6
M  ZZI  43 59
M  ZZM  44 1
M  ZZI  44 111
M  ZZM  45 5
M  ZZI  45 1
M  ZZM  46 5
M  ZZI  46 1
M  ZZM  47 5
M  ZZI  47 1
M  END
> <NAME>
Z241938168

> <Score>
-28.526276

> <Natom>
47

> <Nflex>
3

> <Hbond>
-5.781718

> <Hphob>
-5.929846

> <VwInt>
-28.05307

> <Eintl>
5.312389

> <Dsolv>
12.980894

> <SolEl>
9.987677

> <mfScore>
-100.309149

> <RecConf>
1

> <molLogP>
3.037677

$$$$
Z422706136
  MOLSOFT 11211612053D

 47 48  0  0  0  0  0  0  0  0999 V2000
  -37.9505    6.0164   70.0015 H   0  0  0
  -36.9405    5.6504   70.2044 C   0  0  0
  -37.0330    4.8328   70.9256 H   0  0  0
  -36.3508    6.4498   70.6629 H   0  0  0
  -36.2871    5.1822   68.9386 C   0  0  0
  -36.3853    5.9325   67.7767 C   0  0  0
  -36.9542    6.8566   67.7617 H   0  0  0
  -35.7466    5.5031   66.6284 C   0  0  0
  -35.0596    4.3020   66.6038 C   0  0  0
  -34.6129    3.9505   65.6807 H   0  0  0
  -34.9469    3.5504   67.7612 C   0  0  0
  -35.5511    4.0064   68.9219 C   0  0  0
  -35.4658    3.4142   69.8286 H   0  0  0
  -34.2195    2.2396   67.7589 C   0  0  0
  -33.4625    2.2216   68.5482 H   0  0  0
  -34.9198    1.4153   67.9213 H   0  0  0
  -33.7103    2.0755   66.8051 H   0  0  0
  -35.8552    6.2651   65.4686 O   0  0  0
  -34.6801    6.9202   65.0997 C   0  0  0
  -33.8535    7.5021   66.0489 C   0  0  0
  -34.0950    7.4484   67.1042 H   0  0  0
  -32.7222    8.1899   65.6331 C   0  0  0
  -32.4607    8.2219   64.2727 C   0  0  0
  -31.5840    8.7237   63.8759 H   0  0  0
  -33.3496    7.6233   63.4073 C   0  0  0
  -33.1699    7.6468   62.3374 H   0  0  0
  -34.4662    6.9924   63.7815 N   0  0  0
  -31.8121    8.8749   66.6148 C   0  0  0
  -31.2036    8.1429   67.1495 H   0  0  0
  -31.1369    9.5532   66.0881 H   0  0  0
  -32.5551    9.6402   67.5906 N   0  0  0
  -32.7484    9.2234   68.4937 H   0  0  0
  -33.0527   10.8877   67.2859 C   0  0  0
  -32.8739   11.4410   66.2120 O   0  0  0
  -33.8702   11.5132   68.3883 C   0  0  0
  -34.5403   12.2236   67.9005 H   0  0  0
  -34.5013   10.7528   68.8606 H   0  0  0
  -33.0208   12.2568   69.4145 C   0  0  0
  -32.2386   12.8283   68.9065 H   0  0  0
  -33.6600   12.9814   69.9266 H   0  0  0
  -32.3923   11.3365   70.4575 C   0  0  0
  -33.1634   10.7148   70.9240 H   0  0  0
  -31.6732   10.6606   69.9860 H   0  0  0
  -31.6769   12.1333   71.5338 C   0  0  0
  -32.3738   12.7876   72.0662 H   0  0  0
  -31.2180   11.4615   72.2644 H   0  0  0
  -30.8855   12.7539   71.1032 H   0  0  0
  2  1  1
  2  3  1
  2  4  1
  2  5  1
  5  6  1
  5 12  2
  6  7  1
  6  8  2
  8  9  1
  8 18  1
  9 10  1
  9 11  2
 11 12  1
 11 14  1
 12 13  1
 14 15  1
 14 16  1
 14 17  1
 18 19  1
 19 20  1
 19 27  2
 20 21  1
 20 22  2
 22 23  1
 22 28  1
 23 24  1
 23 25  2
 25 26  1
 25 27  1
 28 29  1
 28 30  1
 28 31  1
 31 32  1
 31 33  1
 33 34  2
 33 35  1
 35 36  1
 35 37  1
 35 38  1
 38 39  1
 38 40  1
 38 41  1
 41 42  1
 41 43  1
 41 44  1
 44 45  1
 44 46  1
 44 47  1
M  ZZC   1 h1
M  ZZC   2 c19
M  ZZC   3 h2
M  ZZC   4 h3
M  ZZC   5 c14
M  ZZC   6 c13
M  ZZC   7 h9
M  ZZC   8 c12
M  ZZC   9 c17
M  ZZC  10 h7
M  ZZC  11 c16
M  ZZC  12 c15
M  ZZC  13 h8
M  ZZC  14 c18
M  ZZC  15 h4
M  ZZC  16 h5
M  ZZC  17 h6
M  ZZC  18 o2
M  ZZC  19 c10
M  ZZC  20 c11
M  ZZC  21 h10
M  ZZC  22 c7
M  ZZC  23 c8
M  ZZC  24 h12
M  ZZC  25 c9
M  ZZC  26 h11
M  ZZC  27 n2
M  ZZC  28 c6
M  ZZC  29 h13
M  ZZC  30 h14
M  ZZC  31 n1
M  ZZC  32 h15
M  ZZC  33 c5
M  ZZC  34 o1
M  ZZC  35 c4
M  ZZC  36 h16
M  ZZC  37 h17
M  ZZC  38 c3
M  ZZC  39 h18
M  ZZC  40 h19
M  ZZC  41 c2
M  ZZC  42 h20
M  ZZC  43 h21
M  ZZC  44 c1
M  ZZC  45 h22
M  ZZC  46 h23
M  ZZC  47 h24
M  ZZM   1 5
M  ZZI   1 1
M  ZZM   2 1
M  ZZI   2 111
M  ZZM   3 5
M  ZZI   3 1
M  ZZM   4 5
M  ZZI   4 1
M  ZZM   5 37
M  ZZI   5 124
M  ZZM   6 37
M  ZZI   6 125
M  ZZM   7 5
M  ZZI   7 1
M  ZZM   8 37
M  ZZI   8 124
M  ZZM   9 37
M  ZZI   9 125
M  ZZM  10 5
M  ZZI  10 1
M  ZZM  11 37
M  ZZI  11 124
M  ZZM  12 37
M  ZZI  12 125
M  ZZM  13 5
M  ZZI  13 1
M  ZZM  14 1
M  ZZI  14 111
M  ZZM  15 5
M  ZZI  15 1
M  ZZM  16 5
M  ZZI  16 1
M  ZZM  17 5
M  ZZI  17 1
M  ZZM  18 6
M  ZZI  18 59
M  ZZM  19 37
M  ZZI  19 124
M  ZZM  20 37
M  ZZI  20 125
M  ZZM  21 5
M  ZZI  21 1
M  ZZM  22 37
M  ZZI  22 124
M  ZZM  23 37
M  ZZI  23 125
M  ZZM  24 5
M  ZZI  24 1
M  ZZM  25 37
M  ZZI  25 125
M  ZZM  26 5
M  ZZI  26 1
M  ZZM  27 38
M  ZZI  27 223
M  ZZM  28 1
M  ZZI  28 112
M  ZZM  29 5
M  ZZI  29 1
M  ZZM  30 5
M  ZZI  30 1
M  ZZM  31 10
M  ZZI  31 211
M  ZZM  32 28
M  ZZI  32 11
M  ZZM  33 3
M  ZZI  33 121
M  ZZM  34 7
M  ZZI  34 81
M  ZZM  35 1
M  ZZI  35 112
M  ZZM  36 5
M  ZZI  36 1
M  ZZM  37 5
M  ZZI  37 1
M  ZZM  38 1
M  ZZI  38 112
M  ZZM  39 5
M  ZZI  39 1
M  ZZM  40 5
M  ZZI  40 1
M  ZZM  41 1
M  ZZI  41 112
M  ZZM  42 5
M  ZZI  42 1
M  ZZM  43 5
M  ZZI  43 1
M  ZZM  44 1
M  ZZI  44 111
M  ZZM  45 5
M  ZZI  45 1
M  ZZM  46 5
M  ZZI  46 1
M  ZZM  47 5
M  ZZI  47 1
M  END
> <NAME>
Z422706136

> <Score>
-27.61427

> <Natom>
47

> <Nflex>
5

> <Hbond>
-3.056923

> <Hphob>
-7.082447

> <VwInt>
-29.039368

> <Eintl>
7.256891

> <Dsolv>
11.419903

> <SolEl>
3.544586

> <mfScore>
-94.71272

> <RecConf>
1

> <molLogP>
4.284928

$$$$
Z220402848
  MOLSOFT 11211612053D

 47 49  0  0  1  0  0  0  0  0999 V2000
  -33.2812   10.3608   65.6326 O   0  0  0
  -33.0730    9.6541   66.6129 C   0  0  0
  -32.5553   10.1408   67.9075 C   0  0  0
  -31.5977    9.4101   68.5994 C   0  0  0
  -31.1701    8.5036   68.1829 H   0  0  0
  -31.1791    9.8576   69.8365 C   0  0  0
  -30.4270    9.3137   70.3981 H   0  0  0
  -31.7333   11.0068   70.3608 C   0  0  0
  -31.3312   11.4360   71.5672 F   0  0  0
  -32.6906   11.7256   69.6770 C   0  0  0
  -33.1112   12.6181   70.1264 H   0  0  0
  -33.0964   11.3113   68.4233 C   0  0  0
  -34.1135   11.9981   67.7480 N   0  0  0
  -34.2490   11.8246   66.7521 H   0  0  0
  -34.5084   12.8455   68.1504 H   0  0  0
  -33.3326    8.3184   66.7566 O   0  0  0
  -34.0824    7.7325   65.6811 C   0  0  0
  -34.5914    8.4919   65.0785 H   0  0  0
  -33.4068    7.1456   65.0507 H   0  0  0
  -35.1274    6.8079   66.2764 C   0  0  0
  -36.1148    6.4614   65.6420 O   0  0  0
  -34.8124    6.3772   67.5535 N   0  0  0
  -33.9427    6.7031   67.9602 H   0  0  0
  -35.6657    5.4947   68.3420 C   0  0  1
  -36.5794    5.3369   67.7633 H   0  0  0
  -34.9844    4.1729   68.5603 C   0  0  0
  -34.7524    3.2366   67.5767 N   0  0  0
  -35.0862    3.3431   66.1660 C   0  0  0
  -34.4363    4.0961   65.7211 H   0  0  0
  -34.9141    2.3747   65.6923 H   0  0  0
  -36.1370    3.6278   66.0730 H   0  0  0
  -34.1572    2.1483   68.1483 C   0  0  0
  -33.8593    1.2746   67.5884 H   0  0  0
  -34.0739    2.4527   69.4811 C   0  0  0
  -33.6741    1.8391   70.2765 H   0  0  0
  -34.5728    3.7022   69.7254 N   0  0  0
  -36.0657    6.1061   69.6697 C   0  0  0
  -35.1916    6.8711   70.4391 C   0  0  0
  -34.1994    7.1203   70.0799 H   0  0  0
  -35.5517    7.2995   71.7010 C   0  0  0
  -34.8566    7.8898   72.2894 H   0  0  0
  -36.7872    6.9780   72.2227 C   0  0  0
  -37.0674    7.3196   73.2139 H   0  0  0
  -37.6704    6.2342   71.4725 C   0  0  0
  -38.6478    5.9838   71.8732 H   0  0  0
  -37.3102    5.8046   70.2121 C   0  0  0
  -38.0175    5.2071   69.6501 H   0  0  0
  2  1  2
  2  3  1
  2 16  1
  3  4  2
  3 12  1
  4  5  1
  4  6  1
  6  7  1
  6  8  2
  8  9  1
  8 10  1
 10 11  1
 10 12  2
 12 13  1
 13 14  1
 13 15  1
 16 17  1
 17 18  1
 17 19  1
 17 20  1
 20 21  2
 20 22  1
 22 23  1
 24 22  1
 24 25  1
 24 26  1
 24 37  1
 26 27  1
 26 36  2
 27 28  1
 27 32  1
 28 29  1
 28 30  1
 28 31  1
 32 33  1
 32 34  2
 34 35  1
 34 36  1
 37 38  1
 37 46  2
 38 39  1
 38 40  2
 40 41  1
 40 42  1
 42 43  1
 42 44  2
 44 45  1
 44 46  1
 46 47  1
M  ZZC   1 o3
M  ZZC   2 c14
M  ZZC   3 c15
M  ZZC   4 c16
M  ZZC   5 h5
M  ZZC   6 c17
M  ZZC   7 h4
M  ZZC   8 c18
M  ZZC   9 f1
M  ZZC  10 c19
M  ZZC  11 h3
M  ZZC  12 c20
M  ZZC  13 n4
M  ZZC  14 h1
M  ZZC  15 h2
M  ZZC  16 o2
M  ZZC  17 c13
M  ZZC  18 h6
M  ZZC  19 h7
M  ZZC  20 c12
M  ZZC  21 o1
M  ZZC  22 n3
M  ZZC  23 h8
M  ZZC  24 c5
M  ZZC  25 h19
M  ZZC  26 c4
M  ZZC  27 n1
M  ZZC  28 c1
M  ZZC  29 h16
M  ZZC  30 h17
M  ZZC  31 h18
M  ZZC  32 c2
M  ZZC  33 h15
M  ZZC  34 c3
M  ZZC  35 h14
M  ZZC  36 n2
M  ZZC  37 c6
M  ZZC  38 c11
M  ZZC  39 h9
M  ZZC  40 c10
M  ZZC  41 h10
M  ZZC  42 c9
M  ZZC  43 h11
M  ZZC  44 c8
M  ZZC  45 h12
M  ZZC  46 c7
M  ZZC  47 h13
M  ZZM   1 7
M  ZZI   1 82
M  ZZM   2 3
M  ZZI   2 123
M  ZZM   3 37
M  ZZI   3 124
M  ZZM   4 37
M  ZZI   4 125
M  ZZM   5 5
M  ZZI   5 1
M  ZZM   6 37
M  ZZI   6 125
M  ZZM   7 5
M  ZZI   7 1
M  ZZM   8 37
M  ZZI   8 124
M  ZZM   9 11
M  ZZI   9 90
M  ZZM  10 37
M  ZZI  10 125
M  ZZM  11 5
M  ZZI  11 1
M  ZZM  12 37
M  ZZI  12 124
M  ZZM  13 40
M  ZZI  13 224
M  ZZM  14 28
M  ZZI  14 11
M  ZZM  15 28
M  ZZI  15 11
M  ZZM  16 6
M  ZZI  16 61
M  ZZM  17 1
M  ZZI  17 112
M  ZZM  18 5
M  ZZI  18 1
M  ZZM  19 5
M  ZZI  19 1
M  ZZM  20 3
M  ZZI  20 121
M  ZZM  21 7
M  ZZI  21 81
M  ZZM  22 10
M  ZZI  22 211
M  ZZM  23 28
M  ZZI  23 11
M  ZZM  24 1
M  ZZI  24 113
M  ZZM  25 5
M  ZZI  25 1
M  ZZM  26 63
M  ZZI  26 104
M  ZZM  27 39
M  ZZI  27 215
M  ZZM  28 1
M  ZZI  28 111
M  ZZM  29 5
M  ZZI  29 1
M  ZZM  30 5
M  ZZI  30 1
M  ZZM  31 5
M  ZZI  31 1
M  ZZM  32 63
M  ZZI  32 104
M  ZZM  33 5
M  ZZI  33 1
M  ZZM  34 64
M  ZZI  34 105
M  ZZM  35 5
M  ZZI  35 1
M  ZZM  36 66
M  ZZI  36 222
M  ZZM  37 37
M  ZZI  37 124
M  ZZM  38 37
M  ZZI  38 125
M  ZZM  39 5
M  ZZI  39 1
M  ZZM  40 37
M  ZZI  40 125
M  ZZM  41 5
M  ZZI  41 1
M  ZZM  42 37
M  ZZI  42 125
M  ZZM  43 5
M  ZZI  43 1
M  ZZM  44 37
M  ZZI  44 125
M  ZZM  45 5
M  ZZI  45 1
M  ZZM  46 37
M  ZZI  46 125
M  ZZM  47 5
M  ZZI  47 1
M  END
> <NAME>
Z220402848

> <Score>
-27.4855

> <Natom>
47

> <Nflex>
5

> <Hbond>
-5.453429

> <Hphob>
-7.196211

> <VwInt>
-28.811488

> <Eintl>
7.534779

> <Dsolv>
12.03747

> <SolEl>
11.99473

> <mfScore>
-77.990732

> <RecConf>
1

> <molLogP>
1.797567

$$$$
Z1139320675
  MOLSOFT 11211612053D

 47 50  0  0  1  0  0  0  0  0999 V2000
  -32.0550   13.0938   67.5808 H   0  0  0
  -32.7647   12.2951   67.7095 C   0  0  0
  -33.4040   11.8846   68.8944 C   0  0  0
  -33.3031   12.3069   69.8837 H   0  0  0
  -34.1927   10.8296   68.5135 C   0  0  0
  -34.8740   10.2013   69.0670 H   0  0  0
  -33.9675   10.6623   67.1722 N   0  0  0
  -33.1267   11.5760   66.6434 N   0  0  0
  -34.5903    9.6688   66.3114 C   0  0  0
  -35.5721    9.4523   66.7438 H   0  0  0
  -34.7874   10.1571   65.3511 H   0  0  0
  -33.7527    8.3838   66.1621 C   0  0  2
  -33.4554    7.9983   67.1420 H   0  0  0
  -32.5326    8.5645   65.2676 C   0  0  0
  -31.9800    9.4914   65.4392 H   0  0  0
  -31.8356    7.7339   65.4199 H   0  0  0
  -33.1141    8.4752   63.8734 C   0  0  0
  -33.5529    9.4373   63.5985 H   0  0  0
  -32.3730    8.2131   63.1119 H   0  0  0
  -34.2020    7.4298   64.0151 C   0  0  0
  -35.0887    7.6624   63.4181 H   0  0  0
  -33.8427    6.4375   63.7254 H   0  0  0
  -34.5321    7.4059   65.4273 N   0  0  0
  -35.4340    6.4670   65.9181 C   0  0  0
  -36.2117    5.8859   65.1766 O   0  0  0
  -35.3507    6.1197   67.3272 C   0  0  0
  -35.4957    6.9482   68.4242 C   0  0  0
  -35.7168    8.0022   68.4979 H   0  0  0
  -35.2730    6.2033   69.5551 N   0  0  0
  -35.2329    6.7609   70.9101 C   0  0  0
  -36.1214    7.3838   71.0324 H   0  0  0
  -35.3119    5.9389   71.6261 H   0  0  0
  -33.9743    7.5373   71.1573 C   0  0  0
  -33.0330    7.0509   70.9372 H   0  0  0
  -33.9417    8.7853   71.6375 C   0  0  0
  -34.8474    9.3230   71.8886 H   0  0  0
  -32.9977    9.2947   71.7947 H   0  0  0
  -35.0769    4.8799   69.2206 C   0  0  0
  -35.1210    4.8061   67.8357 C   0  0  0
  -34.9187    3.5737   67.2241 C   0  0  0
  -34.9389    3.4712   66.1436 H   0  0  0
  -34.6829    2.4666   68.0096 C   0  0  0
  -34.5222    1.5044   67.5372 H   0  0  0
  -34.6498    2.5593   69.3811 C   0  0  0
  -34.4642    1.6679   69.9719 H   0  0  0
  -34.8462    3.7669   70.0153 C   0  0  0
  -34.8089    3.8224   71.0979 H   0  0  0
  2  1  1
  2  3  1
  2  8  2
  3  4  1
  3  5  2
  5  6  1
  5  7  1
  7  8  1
  7  9  1
  9 10  1
  9 11  1
 12  9  1
 12 13  1
 12 14  1
 12 23  1
 14 15  1
 14 16  1
 14 17  1
 17 18  1
 17 19  1
 17 20  1
 20 21  1
 20 22  1
 20 23  1
 23 24  1
 24 25  2
 24 26  1
 26 27  2
 26 39  1
 27 28  1
 27 29  1
 29 30  1
 29 38  1
 30 31  1
 30 32  1
 30 33  1
 33 34  1
 33 35  2
 35 36  1
 35 37  1
 38 39  2
 38 46  1
 39 40  1
 40 41  1
 40 42  2
 42 43  1
 42 44  1
 44 45  1
 44 46  2
 46 47  1
M  ZZC   1 h1
M  ZZC   2 c20
M  ZZC   3 c19
M  ZZC   4 h2
M  ZZC   5 c18
M  ZZC   6 h3
M  ZZC   7 n3
M  ZZC   8 n4
M  ZZC   9 c17
M  ZZC  10 h4
M  ZZC  11 h5
M  ZZC  12 c16
M  ZZC  13 h22
M  ZZC  14 c15
M  ZZC  15 h6
M  ZZC  16 h7
M  ZZC  17 c14
M  ZZC  18 h8
M  ZZC  19 h9
M  ZZC  20 c13
M  ZZC  21 h10
M  ZZC  22 h11
M  ZZC  23 n2
M  ZZC  24 c12
M  ZZC  25 o1
M  ZZC  26 c5
M  ZZC  27 c4
M  ZZC  28 h16
M  ZZC  29 n1
M  ZZC  30 c3
M  ZZC  31 h17
M  ZZC  32 h18
M  ZZC  33 c2
M  ZZC  34 h19
M  ZZC  35 c1
M  ZZC  36 h20
M  ZZC  37 h21
M  ZZC  38 c7
M  ZZC  39 c6
M  ZZC  40 c11
M  ZZC  41 h12
M  ZZC  42 c10
M  ZZC  43 h13
M  ZZC  44 c9
M  ZZC  45 h14
M  ZZC  46 c8
M  ZZC  47 h15
M  ZZM   1 5
M  ZZI   1 1
M  ZZM   2 64
M  ZZI   2 105
M  ZZM   3 64
M  ZZI   3 105
M  ZZM   4 5
M  ZZI   4 1
M  ZZM   5 63
M  ZZI   5 104
M  ZZM   6 5
M  ZZI   6 1
M  ZZM   7 39
M  ZZI   7 215
M  ZZM   8 65
M  ZZI   8 207
M  ZZM   9 1
M  ZZI   9 112
M  ZZM  10 5
M  ZZI  10 1
M  ZZM  11 5
M  ZZI  11 1
M  ZZM  12 1
M  ZZI  12 113
M  ZZM  13 5
M  ZZI  13 1
M  ZZM  14 1
M  ZZI  14 112
M  ZZM  15 5
M  ZZI  15 1
M  ZZM  16 5
M  ZZI  16 1
M  ZZM  17 1
M  ZZI  17 112
M  ZZM  18 5
M  ZZI  18 1
M  ZZM  19 5
M  ZZI  19 1
M  ZZM  20 1
M  ZZI  20 112
M  ZZM  21 5
M  ZZI  21 1
M  ZZM  22 5
M  ZZI  22 1
M  ZZM  23 10
M  ZZI  23 192
M  ZZM  24 3
M  ZZI  24 121
M  ZZM  25 7
M  ZZI  25 81
M  ZZM  26 64
M  ZZI  26 105
M  ZZM  27 63
M  ZZI  27 104
M  ZZM  28 5
M  ZZI  28 1
M  ZZM  29 39
M  ZZI  29 215
M  ZZM  30 1
M  ZZI  30 112
M  ZZM  31 5
M  ZZI  31 1
M  ZZM  32 5
M  ZZI  32 1
M  ZZM  33 2
M  ZZI  33 120
M  ZZM  34 5
M  ZZI  34 1
M  ZZM  35 2
M  ZZI  35 120
M  ZZM  36 5
M  ZZI  36 1
M  ZZM  37 5
M  ZZI  37 1
M  ZZM  38 63
M  ZZI  38 104
M  ZZM  39 64
M  ZZI  39 105
M  ZZM  40 37
M  ZZI  40 125
M  ZZM  41 5
M  ZZI  41 1
M  ZZM  42 37
M  ZZI  42 125
M  ZZM  43 5
M  ZZI  43 1
M  ZZM  44 37
M  ZZI  44 125
M  ZZM  45 5
M  ZZI  45 1
M  ZZM  46 37
M  ZZI  46 125
M  ZZM  47 5
M  ZZI  47 1
M  END
> <NAME>
Z1139320675

> <Score>
-27.297343

> <Natom>
47

> <Nflex>
5

> <Hbond>
-2.939019

> <Hphob>
-6.847556

> <VwInt>
-28.035474

> <Eintl>
7.101023

> <Dsolv>
8.694826

> <SolEl>
4.909988

> <mfScore>
-103.123138

> <RecConf>
1

> <molLogP>
2.600243

$$$$
Z279710346
  MOLSOFT 11211612053D

 47 49  0  0  0  0  0  0  0  0999 V2000
  -35.2649    0.7536   70.2581 H   0  0  0
  -34.3873    1.3244   69.9344 C   0  0  0
  -33.7036    1.5058   70.7704 H   0  0  0
  -33.8514    0.7302   69.1900 H   0  0  0
  -34.7610    2.5582   69.3152 O   0  0  0
  -35.5783    3.3710   70.1124 C   0  0  0
  -35.9245    3.0884   71.4277 C   0  0  0
  -35.5670    2.2036   71.9410 H   0  0  0
  -36.7575    3.9481   72.1153 C   0  0  0
  -37.0297    3.7140   73.1403 H   0  0  0
  -37.2454    5.0978   71.5165 C   0  0  0
  -38.1552    6.0123   72.2832 C   0  0  0
  -39.0883    5.5005   72.5356 H   0  0  0
  -38.4088    6.9003   71.7000 H   0  0  0
  -37.6686    6.3504   73.2029 H   0  0  0
  -36.8972    5.3746   70.2026 C   0  0  0
  -37.3037    6.2592   69.7279 H   0  0  0
  -36.0621    4.5162   69.5005 C   0  0  0
  -35.7028    4.7133   68.1466 N   0  0  0
  -35.1444    3.9640   67.7471 H   0  0  0
  -36.0255    5.8051   67.3575 C   0  0  0
  -36.6092    6.8146   67.7246 O   0  0  0
  -35.5664    5.6047   65.9278 C   0  0  0
  -34.5297    5.2565   65.9124 H   0  0  0
  -36.1725    4.7998   65.5007 H   0  0  0
  -35.7347    6.7557   65.0799 O   0  0  0
  -34.5031    7.3822   64.8946 C   0  0  0
  -34.0357    7.4927   63.6003 C   0  0  0
  -34.6321    7.1308   62.7724 H   0  0  0
  -32.7900    8.0331   63.3576 C   0  0  0
  -32.4073    8.0784   62.3428 H   0  0  0
  -32.0238    8.4928   64.4079 C   0  0  0
  -31.0289    8.8783   64.2190 H   0  0  0
  -32.5327    8.4615   65.6924 C   0  0  0
  -33.7696    7.8929   65.9544 C   0  0  0
  -34.1474    7.8452   66.9698 H   0  0  0
  -31.7331    8.9247   66.7310 O   0  0  0
  -32.3113    9.9510   67.4721 C   0  0  0
  -31.9918   10.0022   68.8160 C   0  0  0
  -31.3335    9.2615   69.2566 H   0  0  0
  -32.5308   11.0122   69.5883 C   0  0  0
  -32.3078   11.0847   70.6483 H   0  0  0
  -33.3560   11.9300   68.9734 C   0  0  0
  -33.8028   12.7411   69.5375 H   0  0  0
  -33.5955   11.8061   67.6208 C   0  0  0
  -34.2346   12.5217   67.1188 H   0  0  0
  -33.0819   10.8500   66.8356 N   0  0  0
  2  1  1
  2  3  1
  2  4  1
  2  5  1
  5  6  1
  6  7  1
  6 18  2
  7  8  1
  7  9  2
  9 10  1
  9 11  1
 11 12  1
 11 16  2
 12 13  1
 12 14  1
 12 15  1
 16 17  1
 16 18  1
 18 19  1
 19 20  1
 19 21  1
 21 22  2
 21 23  1
 23 24  1
 23 25  1
 23 26  1
 26 27  1
 27 28  2
 27 35  1
 28 29  1
 28 30  1
 30 31  1
 30 32  2
 32 33  1
 32 34  1
 34 35  2
 34 37  1
 35 36  1
 37 38  1
 38 39  2
 38 47  1
 39 40  1
 39 41  1
 41 42  1
 41 43  2
 43 44  1
 43 45  1
 45 46  1
 45 47  2
M  ZZC   1 h1
M  ZZC   2 c21
M  ZZC   3 h2
M  ZZC   4 h3
M  ZZC   5 o4
M  ZZC   6 c5
M  ZZC   7 c4
M  ZZC   8 h16
M  ZZC   9 c3
M  ZZC  10 h17
M  ZZC  11 c2
M  ZZC  12 c1
M  ZZC  13 h18
M  ZZC  14 h19
M  ZZC  15 h20
M  ZZC  16 c7
M  ZZC  17 h15
M  ZZC  18 c6
M  ZZC  19 n1
M  ZZC  20 h14
M  ZZC  21 c8
M  ZZC  22 o1
M  ZZC  23 c9
M  ZZC  24 h12
M  ZZC  25 h13
M  ZZC  26 o2
M  ZZC  27 c10
M  ZZC  28 c11
M  ZZC  29 h11
M  ZZC  30 c12
M  ZZC  31 h10
M  ZZC  32 c13
M  ZZC  33 h9
M  ZZC  34 c14
M  ZZC  35 c15
M  ZZC  36 h8
M  ZZC  37 o3
M  ZZC  38 c16
M  ZZC  39 c17
M  ZZC  40 h7
M  ZZC  41 c18
M  ZZC  42 h6
M  ZZC  43 c19
M  ZZC  44 h5
M  ZZC  45 c20
M  ZZC  46 h4
M  ZZC  47 n2
M  ZZM   1 5
M  ZZI   1 1
M  ZZM   2 1
M  ZZI   2 111
M  ZZM   3 5
M  ZZI   3 1
M  ZZM   4 5
M  ZZI   4 1
M  ZZM   5 6
M  ZZI   5 59
M  ZZM   6 37
M  ZZI   6 124
M  ZZM   7 37
M  ZZI   7 125
M  ZZM   8 5
M  ZZI   8 1
M  ZZM   9 37
M  ZZI   9 125
M  ZZM  10 5
M  ZZI  10 1
M  ZZM  11 37
M  ZZI  11 124
M  ZZM  12 1
M  ZZI  12 111
M  ZZM  13 5
M  ZZI  13 1
M  ZZM  14 5
M  ZZI  14 1
M  ZZM  15 5
M  ZZI  15 1
M  ZZM  16 37
M  ZZI  16 125
M  ZZM  17 5
M  ZZI  17 1
M  ZZM  18 37
M  ZZI  18 124
M  ZZM  19 10
M  ZZI  19 191
M  ZZM  20 28
M  ZZI  20 11
M  ZZM  21 3
M  ZZI  21 121
M  ZZM  22 7
M  ZZI  22 81
M  ZZM  23 1
M  ZZI  23 112
M  ZZM  24 5
M  ZZI  24 1
M  ZZM  25 5
M  ZZI  25 1
M  ZZM  26 6
M  ZZI  26 59
M  ZZM  27 37
M  ZZI  27 124
M  ZZM  28 37
M  ZZI  28 125
M  ZZM  29 5
M  ZZI  29 1
M  ZZM  30 37
M  ZZI  30 125
M  ZZM  31 5
M  ZZI  31 1
M  ZZM  32 37
M  ZZI  32 125
M  ZZM  33 5
M  ZZI  33 1
M  ZZM  34 37
M  ZZI  34 124
M  ZZM  35 37
M  ZZI  35 125
M  ZZM  36 5
M  ZZI  36 1
M  ZZM  37 6
M  ZZI  37 59
M  ZZM  38 37
M  ZZI  38 124
M  ZZM  39 37
M  ZZI  39 125
M  ZZM  40 5
M  ZZI  40 1
M  ZZM  41 37
M  ZZI  41 125
M  ZZM  42 5
M  ZZI  42 1
M  ZZM  43 37
M  ZZI  43 125
M  ZZM  44 5
M  ZZI  44 1
M  ZZM  45 37
M  ZZI  45 125
M  ZZM  46 5
M  ZZI  46 1
M  ZZM  47 38
M  ZZI  47 223
M  END
> <NAME>
Z279710346

> <Score>
-26.917979

> <Natom>
47

> <Nflex>
2

> <Hbond>
-2.660091

> <Hphob>
-6.885085

> <VwInt>
-31.808109

> <Eintl>
8.182482

> <Dsolv>
12.994297

> <SolEl>
8.011278

> <mfScore>
-110.58715

> <RecConf>
1

> <molLogP>
3.727667

$$$$
Z428822992
  MOLSOFT 11211612053D

 47 49  0  0  0  0  0  0  0  0999 V2000
  -33.4629    8.8164   68.8715 H   0  0  0
  -33.5816    9.6300   69.5901 C   0  0  0
  -34.5870    9.5908   70.0199 H   0  0  0
  -32.8432    9.4954   70.3860 H   0  0  0
  -33.3861   10.9363   68.9771 N   0  0  0
  -33.1596   12.0570   69.8750 C   0  0  0
  -33.2545   13.0090   69.3456 H   0  0  0
  -32.1467   11.9793   70.2809 H   0  0  0
  -33.8778   12.0245   70.6973 H   0  0  0
  -33.3109   11.1618   67.6066 C   0  0  0
  -33.0712   12.2347   67.0727 O   0  0  0
  -33.5009   10.0181   66.6893 C   0  0  0
  -32.4273    9.6602   65.8963 C   0  0  0
  -31.4645   10.1360   66.0361 H   0  0  0
  -32.5880    8.7188   64.9052 C   0  0  0
  -31.7443    8.4656   64.2690 H   0  0  0
  -33.8193    8.1146   64.7147 C   0  0  0
  -33.9740    7.1134   63.6143 C   0  0  0
  -34.9316    7.2452   63.1044 H   0  0  0
  -33.9060    6.1044   64.0212 H   0  0  0
  -33.1910    7.2347   62.8600 H   0  0  0
  -34.8695    8.4167   65.5784 C   0  0  0
  -34.7358    9.4103   66.5387 C   0  0  0
  -35.5796    9.7322   67.1414 H   0  0  0
  -36.0717    7.7241   65.4229 O   0  0  0
  -36.4765    7.1298   66.6721 C   0  0  0
  -37.5673    7.0752   66.6852 H   0  0  0
  -36.1611    7.7303   67.5265 H   0  0  0
  -35.9422    5.7112   66.7696 C   0  0  0
  -35.6573    5.0787   65.7620 O   0  0  0
  -35.8309    5.2145   68.0685 N   0  0  0
  -36.2590    5.8819   69.2902 C   0  0  0
  -37.2849    6.2517   69.1842 H   0  0  0
  -35.6055    6.7454   69.4610 H   0  0  0
  -36.1258    4.8692   70.4243 C   0  0  0
  -37.1089    4.5247   70.7634 H   0  0  0
  -35.5725    5.2845   71.2732 H   0  0  0
  -35.3855    3.7618   69.7561 C   0  0  0
  -35.2571    3.9792   68.4148 C   0  0  0
  -34.6264    3.0608   67.5953 C   0  0  0
  -34.5141    3.2195   66.5286 H   0  0  0
  -34.1156    1.9151   68.1799 C   0  0  0
  -33.5998    1.1837   67.5678 H   0  0  0
  -34.2539    1.6897   69.5397 C   0  0  0
  -33.8573    0.7787   69.9762 H   0  0  0
  -34.8966    2.6122   70.3444 C   0  0  0
  -35.0143    2.4333   71.4085 H   0  0  0
  2  1  1
  2  3  1
  2  4  1
  2  5  1
  5  6  1
  5 10  1
  6  7  1
  6  8  1
  6  9  1
 10 11  2
 10 12  1
 12 13  1
 12 23  2
 13 14  1
 13 15  2
 15 16  1
 15 17  1
 17 18  1
 17 22  2
 18 19  1
 18 20  1
 18 21  1
 22 23  1
 22 25  1
 23 24  1
 25 26  1
 26 27  1
 26 28  1
 26 29  1
 29 30  2
 29 31  1
 31 32  1
 31 39  1
 32 33  1
 32 34  1
 32 35  1
 35 36  1
 35 37  1
 35 38  1
 38 39  2
 38 46  1
 39 40  1
 40 41  1
 40 42  2
 42 43  1
 42 44  1
 44 45  1
 44 46  2
 46 47  1
M  ZZC   1 h1
M  ZZC   2 c20
M  ZZC   3 h2
M  ZZC   4 h3
M  ZZC   5 n2
M  ZZC   6 c19
M  ZZC   7 h4
M  ZZC   8 h5
M  ZZC   9 h6
M  ZZC  10 c18
M  ZZC  11 o3
M  ZZC  12 c5
M  ZZC  13 c4
M  ZZC  14 h18
M  ZZC  15 c3
M  ZZC  16 h19
M  ZZC  17 c2
M  ZZC  18 c1
M  ZZC  19 h20
M  ZZC  20 h21
M  ZZC  21 h22
M  ZZC  22 c7
M  ZZC  23 c6
M  ZZC  24 h17
M  ZZC  25 o1
M  ZZC  26 c8
M  ZZC  27 h15
M  ZZC  28 h16
M  ZZC  29 c9
M  ZZC  30 o2
M  ZZC  31 n1
M  ZZC  32 c10
M  ZZC  33 h13
M  ZZC  34 h14
M  ZZC  35 c11
M  ZZC  36 h11
M  ZZC  37 h12
M  ZZC  38 c12
M  ZZC  39 c13
M  ZZC  40 c14
M  ZZC  41 h10
M  ZZC  42 c15
M  ZZC  43 h9
M  ZZC  44 c16
M  ZZC  45 h8
M  ZZC  46 c17
M  ZZC  47 h7
M  ZZM   1 5
M  ZZI   1 1
M  ZZM   2 1
M  ZZI   2 111
M  ZZM   3 5
M  ZZI   3 1
M  ZZM   4 5
M  ZZI   4 1
M  ZZM   5 10
M  ZZI   5 192
M  ZZM   6 1
M  ZZI   6 111
M  ZZM   7 5
M  ZZI   7 1
M  ZZM   8 5
M  ZZI   8 1
M  ZZM   9 5
M  ZZI   9 1
M  ZZM  10 3
M  ZZI  10 121
M  ZZM  11 7
M  ZZI  11 81
M  ZZM  12 37
M  ZZI  12 124
M  ZZM  13 37
M  ZZI  13 125
M  ZZM  14 5
M  ZZI  14 1
M  ZZM  15 37
M  ZZI  15 125
M  ZZM  16 5
M  ZZI  16 1
M  ZZM  17 37
M  ZZI  17 124
M  ZZM  18 1
M  ZZI  18 111
M  ZZM  19 5
M  ZZI  19 1
M  ZZM  20 5
M  ZZI  20 1
M  ZZM  21 5
M  ZZI  21 1
M  ZZM  22 37
M  ZZI  22 124
M  ZZM  23 37
M  ZZI  23 125
M  ZZM  24 5
M  ZZI  24 1
M  ZZM  25 6
M  ZZI  25 59
M  ZZM  26 1
M  ZZI  26 112
M  ZZM  27 5
M  ZZI  27 1
M  ZZM  28 5
M  ZZI  28 1
M  ZZM  29 3
M  ZZI  29 121
M  ZZM  30 7
M  ZZI  30 81
M  ZZM  31 10
M  ZZI  31 192
M  ZZM  32 1
M  ZZI  32 112
M  ZZM  33 5
M  ZZI  33 1
M  ZZM  34 5
M  ZZI  34 1
M  ZZM  35 1
M  ZZI  35 112
M  ZZM  36 5
M  ZZI  36 1
M  ZZM  37 5
M  ZZI  37 1
M  ZZM  38 37
M  ZZI  38 124
M  ZZM  39 37
M  ZZI  39 124
M  ZZM  40 37
M  ZZI  40 125
M  ZZM  41 5
M  ZZI  41 1
M  ZZM  42 37
M  ZZI  42 125
M  ZZM  43 5
M  ZZI  43 1
M  ZZM  44 37
M  ZZI  44 125
M  ZZM  45 5
M  ZZI  45 1
M  ZZM  46 37
M  ZZI  46 125
M  ZZM  47 5
M  ZZI  47 1
M  END
> <NAME>
Z428822992

> <Score>
-26.833331

> <Natom>
47

> <Nflex>
4

> <Hbond>
-2.346345

> <Hphob>
-7.601422

> <VwInt>
-31.277819

> <Eintl>
6.819856

> <Dsolv>
9.890093

> <SolEl>
8.569884

> <mfScore>
-111.470899

> <RecConf>
1

> <molLogP>
2.400221

$$$$
Z49529380
  MOLSOFT 11211612053D

 47 50  0  0  1  0  0  0  0  0999 V2000
  -32.5542   12.6274   71.5648 O   0  0  0
  -32.6757   11.4433   71.2377 N   0  0  0
  -32.4269   10.4735   71.9608 O   0  0  0
  -33.1518   11.1655   69.8869 C   0  0  0
  -33.4917   12.2238   69.0628 C   0  0  0
  -33.4259   13.2586   69.3856 H   0  0  0
  -33.9191   11.9394   67.7860 C   0  0  0
  -34.1793   12.7530   67.1213 H   0  0  0
  -34.0025   10.6358   67.3409 C   0  0  0
  -34.3240   10.4599   66.3191 H   0  0  0
  -33.6457    9.5677   68.1593 C   0  0  0
  -33.2270    9.8477   69.4566 C   0  0  0
  -32.9296    9.0335   70.1131 H   0  0  0
  -33.5867    8.1425   67.6445 C   0  0  1
  -33.5039    7.4659   68.5022 H   0  0  0
  -34.7595    7.6962   66.9029 N   0  0  0
  -34.8138    7.5949   65.5210 C   0  0  0
  -35.8133    7.2806   64.8883 O   0  0  0
  -33.5737    7.8738   64.7820 C   0  0  0
  -32.4069    8.0823   65.4835 C   0  0  0
  -32.3682    7.9969   66.8790 N   0  0  0
  -31.4835    8.1823   67.3439 H   0  0  0
  -31.2483    8.3409   64.7798 C   0  0  0
  -30.3154    8.5034   65.3096 H   0  0  0
  -31.2584    8.3818   63.4030 C   0  0  0
  -30.3392    8.5716   62.8583 H   0  0  0
  -32.4283    8.1456   62.7182 C   0  0  0
  -32.4253    8.1367   61.6368 H   0  0  0
  -33.5962    7.8927   63.3994 C   0  0  0
  -34.5095    7.7065   62.8426 H   0  0  0
  -35.9913    7.5232   67.6650 C   0  0  0
  -35.7743    7.6973   68.7239 H   0  0  0
  -36.6681    8.3156   67.3328 H   0  0  0
  -36.6895    6.1702   67.5014 C   0  0  0
  -37.5656    6.1432   68.1578 H   0  0  0
  -37.0954    6.0668   66.4920 H   0  0  0
  -35.8215    4.9770   67.8077 C   0  0  0
  -35.5522    4.6092   69.1173 C   0  0  0
  -35.9528    5.1904   69.9423 H   0  0  0
  -34.7905    3.4890   69.3871 C   0  0  0
  -34.5948    3.2024   70.4153 H   0  0  0
  -34.2842    2.7274   68.3543 C   0  0  0
  -33.6891    1.8446   68.5658 H   0  0  0
  -34.5378    3.0911   67.0488 C   0  0  0
  -34.1423    2.4951   66.2328 H   0  0  0
  -35.2985    4.2087   66.7772 C   0  0  0
  -35.4922    4.4742   65.7425 H   0  0  0
  2  1  2
  2  3  2
  2  4  1
  4  5  1
  4 12  2
  5  6  1
  5  7  2
  7  8  1
  7  9  1
  9 10  1
  9 11  2
 11 12  1
 14 11  1
 12 13  1
 14 15  1
 14 16  1
 14 21  1
 16 17  1
 16 31  1
 17 18  2
 17 19  1
 19 20  1
 19 29  2
 20 21  1
 20 23  2
 21 22  1
 23 24  1
 23 25  1
 25 26  1
 25 27  2
 27 28  1
 27 29  1
 29 30  1
 31 32  1
 31 33  1
 31 34  1
 34 35  1
 34 36  1
 34 37  1
 37 38  1
 37 46  2
 38 39  1
 38 40  2
 40 41  1
 40 42  1
 42 43  1
 42 44  2
 44 45  1
 44 46  1
 46 47  1
M  ZZC   1 o2
M  ZZC   2 n3
M  ZZC   3 o3
M  ZZC   4 c21
M  ZZC   5 c20
M  ZZC   6 h2
M  ZZC   7 c19
M  ZZC   8 h3
M  ZZC   9 c18
M  ZZC  10 h4
M  ZZC  11 c17
M  ZZC  12 c22
M  ZZC  13 h1
M  ZZC  14 c9
M  ZZC  15 h19
M  ZZC  16 n1
M  ZZC  17 c16
M  ZZC  18 o1
M  ZZC  19 c15
M  ZZC  20 c10
M  ZZC  21 n2
M  ZZC  22 h9
M  ZZC  23 c11
M  ZZC  24 h8
M  ZZC  25 c12
M  ZZC  26 h7
M  ZZC  27 c13
M  ZZC  28 h6
M  ZZC  29 c14
M  ZZC  30 h5
M  ZZC  31 c8
M  ZZC  32 h10
M  ZZC  33 h11
M  ZZC  34 c7
M  ZZC  35 h12
M  ZZC  36 h13
M  ZZC  37 c4
M  ZZC  38 c3
M  ZZC  39 h16
M  ZZC  40 c2
M  ZZC  41 h17
M  ZZC  42 c1
M  ZZC  43 h18
M  ZZC  44 c6
M  ZZC  45 h14
M  ZZC  46 c5
M  ZZC  47 h15
M  ZZM   1 32
M  ZZI   1 73
M  ZZM   2 45
M  ZZI   2 227
M  ZZM   3 32
M  ZZI   3 73
M  ZZM   4 37
M  ZZI   4 124
M  ZZM   5 37
M  ZZI   5 125
M  ZZM   6 5
M  ZZI   6 1
M  ZZM   7 37
M  ZZI   7 125
M  ZZM   8 5
M  ZZI   8 1
M  ZZM   9 37
M  ZZI   9 125
M  ZZM  10 5
M  ZZI  10 1
M  ZZM  11 37
M  ZZI  11 124
M  ZZM  12 37
M  ZZI  12 125
M  ZZM  13 5
M  ZZI  13 1
M  ZZM  14 1
M  ZZI  14 113
M  ZZM  15 5
M  ZZI  15 1
M  ZZM  16 10
M  ZZI  16 192
M  ZZM  17 3
M  ZZI  17 121
M  ZZM  18 7
M  ZZI  18 81
M  ZZM  19 37
M  ZZI  19 124
M  ZZM  20 37
M  ZZI  20 124
M  ZZM  21 40
M  ZZI  21 194
M  ZZM  22 28
M  ZZI  22 11
M  ZZM  23 37
M  ZZI  23 125
M  ZZM  24 5
M  ZZI  24 1
M  ZZM  25 37
M  ZZI  25 125
M  ZZM  26 5
M  ZZI  26 1
M  ZZM  27 37
M  ZZI  27 125
M  ZZM  28 5
M  ZZI  28 1
M  ZZM  29 37
M  ZZI  29 125
M  ZZM  30 5
M  ZZI  30 1
M  ZZM  31 1
M  ZZI  31 112
M  ZZM  32 5
M  ZZI  32 1
M  ZZM  33 5
M  ZZI  33 1
M  ZZM  34 1
M  ZZI  34 112
M  ZZM  35 5
M  ZZI  35 1
M  ZZM  36 5
M  ZZI  36 1
M  ZZM  37 37
M  ZZI  37 124
M  ZZM  38 37
M  ZZI  38 125
M  ZZM  39 5
M  ZZI  39 1
M  ZZM  40 37
M  ZZI  40 125
M  ZZM  41 5
M  ZZI  41 1
M  ZZM  42 37
M  ZZI  42 125
M  ZZM  43 5
M  ZZI  43 1
M  ZZM  44 37
M  ZZI  44 125
M  ZZM  45 5
M  ZZI  45 1
M  ZZM  46 37
M  ZZI  46 125
M  ZZM  47 5
M  ZZI  47 1
M  END
> <NAME>
Z49529380

> <Score>
-26.65922

> <Natom>
47

> <Nflex>
5

> <Hbond>
-1.48074

> <Hphob>
-7.405595

> <VwInt>
-31.220507

> <Eintl>
6.474477

> <Dsolv>
8.598818

> <SolEl>
5.788173

> <mfScore>
-87.04789

> <RecConf>
1

> <molLogP>
4.498126

$$$$
Z31170913
  MOLSOFT 11211612053D

 47 50  0  0  0  0  0  0  0  0999 V2000
  -32.1431   12.9408   66.6384 H   0  0  0
  -32.7238   12.1489   67.0865 C   0  0  0
  -32.6940   12.1559   68.4111 N   0  0  0
  -33.3635   11.1135   68.9031 C   0  0  0
  -34.0648   10.2376   68.1108 C   0  0  0
  -34.6372    9.2765   68.8996 O   0  0  0
  -34.2355    9.5271   70.1805 C   0  0  0
  -33.4468   10.6571   70.2272 C   0  0  0
  -32.9048   11.0662   71.4308 C   0  0  0
  -32.2689   11.9438   71.5038 H   0  0  0
  -33.1689   10.2829   72.5290 C   0  0  0
  -32.7171   10.5653   73.4659 H   0  0  0
  -33.9739    9.1635   72.4609 C   0  0  0
  -34.1629    8.5794   73.3521 H   0  0  0
  -34.5483    8.7615   71.2765 C   0  0  0
  -35.1950    7.8967   71.2187 H   0  0  0
  -34.0953   10.3357   66.7287 C   0  0  0
  -33.3347   11.3242   66.2279 N   0  0  0
  -34.7953    9.4502   65.8725 N   0  0  0
  -34.4326    9.4959   64.4573 C   0  0  0
  -34.8561    8.6488   63.9119 H   0  0  0
  -34.8048   10.4122   63.9962 H   0  0  0
  -33.3468    9.4483   64.3278 H   0  0  0
  -36.0822    8.8604   66.2900 C   0  0  0
  -36.8858    9.2352   65.6466 H   0  0  0
  -36.3629    9.1418   67.3066 H   0  0  0
  -36.0452    7.3440   66.1691 C   0  0  0
  -36.3060    6.8074   65.1016 O   0  0  0
  -35.7120    6.6873   67.3477 N   0  0  0
  -35.6487    7.2401   68.1945 H   0  0  0
  -35.4431    5.2944   67.4531 C   0  0  0
  -35.2173    4.5374   66.3138 C   0  0  0
  -35.2706    4.9744   65.3256 H   0  0  0
  -34.8677    3.2117   66.4067 C   0  0  0
  -34.6830    2.6358   65.5084 H   0  0  0
  -34.7240    2.6208   67.6372 C   0  0  0
  -34.4322    1.5765   67.6863 H   0  0  0
  -34.9480    3.3422   68.7957 C   0  0  0
  -34.7885    2.6323   70.1120 C   0  0  0
  -34.2827    3.2676   70.8453 H   0  0  0
  -35.7641    2.3292   70.5046 H   0  0  0
  -34.1704    1.7365   69.9983 H   0  0  0
  -35.3545    4.6806   68.7101 C   0  0  0
  -35.6675    5.4351   69.9723 C   0  0  0
  -34.7455    5.8314   70.4060 H   0  0  0
  -36.3699    6.2536   69.7959 H   0  0  0
  -36.1581    4.7909   70.7074 H   0  0  0
  2  1  1
  2  3  2
  2 18  1
  3  4  1
  4  5  2
  4  8  1
  5  6  1
  5 17  1
  6  7  1
  7  8  2
  7 15  1
  8  9  1
  9 10  1
  9 11  2
 11 12  1
 11 13  1
 13 14  1
 13 15  2
 15 16  1
 17 18  2
 17 19  1
 19 20  1
 19 24  1
 20 21  1
 20 22  1
 20 23  1
 24 25  1
 24 26  1
 24 27  1
 27 28  2
 27 29  1
 29 30  1
 29 31  1
 31 32  2
 31 43  1
 32 33  1
 32 34  1
 34 35  1
 34 36  2
 36 37  1
 36 38  1
 38 39  1
 38 43  2
 39 40  1
 39 41  1
 39 42  1
 43 44  1
 44 45  1
 44 46  1
 44 47  1
M  ZZC   1 h1
M  ZZC   2 c21
M  ZZC   3 n3
M  ZZC   4 c14
M  ZZC   5 c13
M  ZZC   6 o2
M  ZZC   7 c20
M  ZZC   8 c15
M  ZZC   9 c16
M  ZZC  10 h5
M  ZZC  11 c17
M  ZZC  12 h4
M  ZZC  13 c18
M  ZZC  14 h3
M  ZZC  15 c19
M  ZZC  16 h2
M  ZZC  17 c12
M  ZZC  18 n4
M  ZZC  19 n2
M  ZZC  20 c11
M  ZZC  21 h6
M  ZZC  22 h7
M  ZZC  23 h8
M  ZZC  24 c10
M  ZZC  25 h10
M  ZZC  26 h9
M  ZZC  27 c9
M  ZZC  28 o1
M  ZZC  29 n1
M  ZZC  30 h11
M  ZZC  31 c6
M  ZZC  32 c5
M  ZZC  33 h15
M  ZZC  34 c4
M  ZZC  35 h16
M  ZZC  36 c3
M  ZZC  37 h17
M  ZZC  38 c2
M  ZZC  39 c1
M  ZZC  40 h18
M  ZZC  41 h19
M  ZZC  42 h20
M  ZZC  43 c7
M  ZZC  44 c8
M  ZZC  45 h12
M  ZZC  46 h13
M  ZZC  47 h14
M  ZZM   1 5
M  ZZI   1 6
M  ZZM   2 37
M  ZZI   2 125
M  ZZM   3 38
M  ZZI   3 223
M  ZZM   4 64
M  ZZI   4 105
M  ZZM   5 63
M  ZZI   5 104
M  ZZM   6 59
M  ZZI   6 56
M  ZZM   7 63
M  ZZI   7 104
M  ZZM   8 64
M  ZZI   8 105
M  ZZM   9 37
M  ZZI   9 125
M  ZZM  10 5
M  ZZI  10 1
M  ZZM  11 37
M  ZZI  11 125
M  ZZM  12 5
M  ZZI  12 1
M  ZZM  13 37
M  ZZI  13 125
M  ZZM  14 5
M  ZZI  14 1
M  ZZM  15 37
M  ZZI  15 125
M  ZZM  16 5
M  ZZI  16 1
M  ZZM  17 37
M  ZZI  17 124
M  ZZM  18 38
M  ZZI  18 223
M  ZZM  19 40
M  ZZI  19 193
M  ZZM  20 1
M  ZZI  20 111
M  ZZM  21 5
M  ZZI  21 1
M  ZZM  22 5
M  ZZI  22 1
M  ZZM  23 5
M  ZZI  23 1
M  ZZM  24 1
M  ZZI  24 112
M  ZZM  25 5
M  ZZI  25 1
M  ZZM  26 5
M  ZZI  26 1
M  ZZM  27 3
M  ZZI  27 121
M  ZZM  28 7
M  ZZI  28 81
M  ZZM  29 10
M  ZZI  29 191
M  ZZM  30 28
M  ZZI  30 11
M  ZZM  31 37
M  ZZI  31 124
M  ZZM  32 37
M  ZZI  32 125
M  ZZM  33 5
M  ZZI  33 1
M  ZZM  34 37
M  ZZI  34 125
M  ZZM  35 5
M  ZZI  35 1
M  ZZM  36 37
M  ZZI  36 125
M  ZZM  37 5
M  ZZI  37 1
M  ZZM  38 37
M  ZZI  38 124
M  ZZM  39 1
M  ZZI  39 111
M  ZZM  40 5
M  ZZI  40 1
M  ZZM  41 5
M  ZZI  41 1
M  ZZM  42 5
M  ZZI  42 1
M  ZZM  43 37
M  ZZI  43 124
M  ZZM  44 1
M  ZZI  44 111
M  ZZM  45 5
M  ZZI  45 1
M  ZZM  46 5
M  ZZI  46 1
M  ZZM  47 5
M  ZZI  47 1
M  END
> <NAME>
Z31170913

> <Score>
-26.614281

> <Natom>
47

> <Nflex>
2

> <Hbond>
-3.369278

> <Hphob>
-6.781848

> <VwInt>
-28.164004

> <Eintl>
9.41492

> <Dsolv>
12.459308

> <SolEl>
6.17175

> <mfScore>
-71.08

> <RecConf>
1

> <molLogP>
3.606088

$$$$
Z1082339760
  MOLSOFT 11211612053D

 47 50  0  0  1  0  0  0  0  0999 V2000
  -32.8123    1.7655   68.5025 H   0  0  0
  -33.8882    1.5814   68.4545 C   0  0  0
  -34.0834    0.7271   67.8041 H   0  0  0
  -34.5903    2.8145   68.0098 C   0  0  0
  -34.7033    3.3029   66.7264 C   0  0  0
  -34.2756    2.7668   65.8853 H   0  0  0
  -35.3908    4.4857   66.5348 C   0  0  0
  -35.5047    4.8566   65.5218 H   0  0  0
  -35.9328    5.1872   67.6107 C   0  0  0
  -35.7948    4.6768   68.8956 C   0  0  0
  -36.2164    5.1915   69.7540 H   0  0  0
  -35.1252    3.4846   69.0692 C   0  0  0
  -34.8560    2.7742   70.3505 C   0  0  0
  -35.7318    2.7475   71.0074 H   0  0  0
  -34.0150    3.2432   70.8731 H   0  0  0
  -34.4927    1.3832   69.8402 C   0  0  0
  -35.4073    0.7837   69.7494 H   0  0  0
  -33.8254    0.8435   70.5194 H   0  0  0
  -36.7264    6.4494   67.4049 C   0  0  0
  -37.7356    6.2030   67.0623 H   0  0  0
  -36.8408    6.9664   68.3608 H   0  0  0
  -36.1093    7.4076   66.4123 C   0  0  0
  -36.3263    7.3214   65.2118 O   0  0  0
  -35.2901    8.3495   67.0021 N   0  0  0
  -35.1144    8.3079   68.0015 H   0  0  0
  -34.6516    9.4149   66.2466 C   0  0  1
  -35.4103    9.8388   65.5789 H   0  0  0
  -34.2009   10.4811   67.1919 C   0  0  0
  -34.1312   10.4739   68.5058 N   0  0  0
  -33.5174   11.6761   68.7597 C   0  0  0
  -33.1480   12.1098   70.1207 C   0  0  0
  -33.7970   12.9231   70.4570 H   0  0  0
  -32.1155   12.4689   70.1492 H   0  0  0
  -33.2407   11.2820   70.8265 H   0  0  0
  -33.2526   12.4137   67.6758 N   0  0  0
  -33.6942   11.6125   66.6330 O   0  0  0
  -33.4938    8.9050   65.4206 C   0  0  0
  -32.2456    8.7078   65.9979 C   0  0  0
  -32.0719    8.9638   67.0386 H   0  0  0
  -31.2073    8.1758   65.2646 C   0  0  0
  -30.2349    8.0288   65.7237 H   0  0  0
  -31.4022    7.8234   63.9488 C   0  0  0
  -30.5886    7.3896   63.3757 H   0  0  0
  -32.6232    8.0466   63.3525 C   0  0  0
  -32.7699    7.7898   62.3082 H   0  0  0
  -33.6570    8.5984   64.0740 C   0  0  0
  -34.6042    8.7646   63.5693 H   0  0  0
  2  1  1
  2  3  1
  2  4  1
  2 16  1
  4  5  2
  4 12  1
  5  6  1
  5  7  1
  7  8  1
  7  9  2
  9 10  1
  9 19  1
 10 11  1
 10 12  2
 12 13  1
 13 14  1
 13 15  1
 13 16  1
 16 17  1
 16 18  1
 19 20  1
 19 21  1
 19 22  1
 22 23  2
 22 24  1
 24 25  1
 26 24  1
 26 27  1
 26 28  1
 26 37  1
 28 29  2
 28 36  1
 29 30  1
 30 31  1
 30 35  2
 31 32  1
 31 33  1
 31 34  1
 35 36  1
 37 38  1
 37 46  2
 38 39  1
 38 40  2
 40 41  1
 40 42  1
 42 43  1
 42 44  2
 44 45  1
 44 46  1
 46 47  1
M  ZZC   1 h1
M  ZZC   2 c21
M  ZZC   3 h2
M  ZZC   4 c16
M  ZZC   5 c15
M  ZZC   6 h8
M  ZZC   7 c14
M  ZZC   8 h9
M  ZZC   9 c13
M  ZZC  10 c18
M  ZZC  11 h7
M  ZZC  12 c17
M  ZZC  13 c19
M  ZZC  14 h5
M  ZZC  15 h6
M  ZZC  16 c20
M  ZZC  17 h3
M  ZZC  18 h4
M  ZZC  19 c12
M  ZZC  20 h10
M  ZZC  21 h11
M  ZZC  22 c11
M  ZZC  23 o2
M  ZZC  24 n3
M  ZZC  25 h12
M  ZZC  26 c4
M  ZZC  27 h21
M  ZZC  28 c3
M  ZZC  29 n1
M  ZZC  30 c2
M  ZZC  31 c1
M  ZZC  32 h18
M  ZZC  33 h19
M  ZZC  34 h20
M  ZZC  35 n2
M  ZZC  36 o1
M  ZZC  37 c5
M  ZZC  38 c10
M  ZZC  39 h13
M  ZZC  40 c9
M  ZZC  41 h14
M  ZZC  42 c8
M  ZZC  43 h15
M  ZZC  44 c7
M  ZZC  45 h16
M  ZZC  46 c6
M  ZZC  47 h17
M  ZZM   1 5
M  ZZI   1 1
M  ZZM   2 1
M  ZZI   2 112
M  ZZM   3 5
M  ZZI   3 1
M  ZZM   4 37
M  ZZI   4 124
M  ZZM   5 37
M  ZZI   5 125
M  ZZM   6 5
M  ZZI   6 1
M  ZZM   7 37
M  ZZI   7 125
M  ZZM   8 5
M  ZZI   8 1
M  ZZM   9 37
M  ZZI   9 124
M  ZZM  10 37
M  ZZI  10 125
M  ZZM  11 5
M  ZZI  11 1
M  ZZM  12 37
M  ZZI  12 124
M  ZZM  13 1
M  ZZI  13 112
M  ZZM  14 5
M  ZZI  14 1
M  ZZM  15 5
M  ZZI  15 1
M  ZZM  16 1
M  ZZI  16 112
M  ZZM  17 5
M  ZZI  17 1
M  ZZM  18 5
M  ZZI  18 1
M  ZZM  19 1
M  ZZI  19 112
M  ZZM  20 5
M  ZZI  20 1
M  ZZM  21 5
M  ZZI  21 1
M  ZZM  22 3
M  ZZI  22 121
M  ZZM  23 7
M  ZZI  23 81
M  ZZM  24 10
M  ZZI  24 211
M  ZZM  25 28
M  ZZI  25 11
M  ZZM  26 1
M  ZZI  26 113
M  ZZM  27 5
M  ZZI  27 1
M  ZZM  28 63
M  ZZI  28 104
M  ZZM  29 66
M  ZZI  29 222
M  ZZM  30 64
M  ZZI  30 105
M  ZZM  31 1
M  ZZI  31 111
M  ZZM  32 5
M  ZZI  32 1
M  ZZM  33 5
M  ZZI  33 1
M  ZZM  34 5
M  ZZI  34 1
M  ZZM  35 65
M  ZZI  35 207
M  ZZM  36 59
M  ZZI  36 56
M  ZZM  37 37
M  ZZI  37 124
M  ZZM  38 37
M  ZZI  38 125
M  ZZM  39 5
M  ZZI  39 1
M  ZZM  40 37
M  ZZI  40 125
M  ZZM  41 5
M  ZZI  41 1
M  ZZM  42 37
M  ZZI  42 125
M  ZZM  43 5
M  ZZI  43 1
M  ZZM  44 37
M  ZZI  44 125
M  ZZM  45 5
M  ZZI  45 1
M  ZZM  46 37
M  ZZI  46 125
M  ZZM  47 5
M  ZZI  47 1
M  END
> <NAME>
Z1082339760

> <Score>
-26.595318

> <Natom>
47

> <Nflex>
5

> <Hbond>
-2.886219

> <Hphob>
-7.188697

> <VwInt>
-31.069788

> <Eintl>
5.457975

> <Dsolv>
11.264569

> <SolEl>
7.794856

> <mfScore>
-99.888583

> <RecConf>
1

> <molLogP>
3.539325

$$$$
Z27465044
  MOLSOFT 11211612053D

 47 49  0  0  0  0  0  0  0  0999 V2000
  -31.3926   10.3030   71.6234 Cl  0  0  0
  -31.6651   10.1942   69.9171 C   0  0  0
  -32.5170   11.0825   69.2673 C   0  0  0
  -33.2170   12.1802   70.0108 C   0  0  0
  -33.8489   12.7618   69.3340 H   0  0  0
  -32.4990   12.8643   70.4724 H   0  0  0
  -33.8365   11.7597   70.8068 H   0  0  0
  -32.6893   10.9569   67.8952 C   0  0  0
  -33.3367   11.6473   67.3629 H   0  0  0
  -32.0266    9.9704   67.1902 C   0  0  0
  -31.1749    9.0944   67.8494 C   0  0  0
  -30.6154    8.3286   67.3255 H   0  0  0
  -31.0013    9.2084   69.2122 C   0  0  0
  -30.3275    8.5275   69.7227 H   0  0  0
  -32.2535    9.9398   65.8115 O   0  0  0
  -31.7684    8.7361   65.1814 C   0  0  0
  -32.0790    7.8415   65.7346 H   0  0  0
  -30.6760    8.7684   65.1021 H   0  0  0
  -32.3400    8.6350   63.7846 C   0  0  0
  -31.6308    8.6012   62.7910 O   0  0  0
  -33.7141    8.5294   63.7227 N   0  0  0
  -34.1857    8.3903   62.8298 H   0  0  0
  -34.4800    8.7187   64.8805 N   0  0  0
  -34.2323    9.4991   65.4862 H   0  0  0
  -35.5662    7.9039   65.1188 C   0  0  0
  -35.9372    7.0170   64.3656 O   0  0  0
  -36.2659    8.1876   66.4246 C   0  0  0
  -37.3325    7.9934   66.2858 H   0  0  0
  -36.1705    9.2543   66.6528 H   0  0  0
  -35.7369    7.3633   67.5457 C   0  0  0
  -35.3558    7.8370   68.7846 C   0  0  0
  -35.3137    8.8221   69.2299 H   0  0  0
  -34.9906    6.8165   69.6054 O   0  0  0
  -35.1054    5.6655   68.8856 C   0  0  0
  -35.5339    5.9450   67.6018 C   0  0  0
  -35.6688    4.8774   66.7218 C   0  0  0
  -36.0035    5.0135   65.7001 H   0  0  0
  -35.3435    3.6108   67.1664 C   0  0  0
  -35.4162    2.7755   66.4766 H   0  0  0
  -34.9423    3.3700   68.4643 C   0  0  0
  -34.8251    4.4084   69.3778 C   0  0  0
  -34.5098    4.2799   70.4058 H   0  0  0
  -34.6658    2.0331   68.7610 O   0  0  0
  -34.3888    1.7958   70.1438 C   0  0  0
  -33.4674    2.2984   70.4543 H   0  0  0
  -34.2348    0.7225   70.2724 H   0  0  0
  -35.2378    2.0867   70.7718 H   0  0  0
  2  1  1
  2  3  2
  2 13  1
  3  4  1
  3  8  1
  4  5  1
  4  6  1
  4  7  1
  8  9  1
  8 10  2
 10 11  1
 10 15  1
 11 12  1
 11 13  2
 13 14  1
 15 16  1
 16 17  1
 16 18  1
 16 19  1
 19 20  2
 19 21  1
 21 22  1
 21 23  1
 23 24  1
 23 25  1
 25 26  2
 25 27  1
 27 28  1
 27 29  1
 27 30  1
 30 31  2
 30 35  1
 31 32  1
 31 33  1
 33 34  1
 34 35  2
 34 41  1
 35 36  1
 36 37  1
 36 38  2
 38 39  1
 38 40  1
 40 41  2
 40 43  1
 41 42  1
 43 44  1
 44 45  1
 44 46  1
 44 47  1
M  ZZC   1 &Cl1
M  ZZC   2 c7
M  ZZC   3 c2
M  ZZC   4 c1
M  ZZC   5 h17
M  ZZC   6 h18
M  ZZC   7 h19
M  ZZC   8 c3
M  ZZC   9 h16
M  ZZC  10 c4
M  ZZC  11 c5
M  ZZC  12 h15
M  ZZC  13 c6
M  ZZC  14 h14
M  ZZC  15 o1
M  ZZC  16 c8
M  ZZC  17 h12
M  ZZC  18 h13
M  ZZC  19 c9
M  ZZC  20 o2
M  ZZC  21 n1
M  ZZC  22 h11
M  ZZC  23 n2
M  ZZC  24 h10
M  ZZC  25 c10
M  ZZC  26 o3
M  ZZC  27 c11
M  ZZC  28 h8
M  ZZC  29 h9
M  ZZC  30 c12
M  ZZC  31 c13
M  ZZC  32 h7
M  ZZC  33 o4
M  ZZC  34 c14
M  ZZC  35 c15
M  ZZC  36 c16
M  ZZC  37 h6
M  ZZC  38 c17
M  ZZC  39 h5
M  ZZC  40 c18
M  ZZC  41 c19
M  ZZC  42 h4
M  ZZC  43 o5
M  ZZC  44 c20
M  ZZC  45 h1
M  ZZC  46 h2
M  ZZC  47 h3
M  ZZM   1 12
M  ZZI   1 92
M  ZZM   2 37
M  ZZI   2 124
M  ZZM   3 37
M  ZZI   3 124
M  ZZM   4 1
M  ZZI   4 111
M  ZZM   5 5
M  ZZI   5 1
M  ZZM   6 5
M  ZZI   6 1
M  ZZM   7 5
M  ZZI   7 1
M  ZZM   8 37
M  ZZI   8 125
M  ZZM   9 5
M  ZZI   9 1
M  ZZM  10 37
M  ZZI  10 124
M  ZZM  11 37
M  ZZI  11 125
M  ZZM  12 5
M  ZZI  12 1
M  ZZM  13 37
M  ZZI  13 125
M  ZZM  14 5
M  ZZI  14 1
M  ZZM  15 6
M  ZZI  15 59
M  ZZM  16 1
M  ZZI  16 112
M  ZZM  17 5
M  ZZI  17 1
M  ZZM  18 5
M  ZZI  18 1
M  ZZM  19 3
M  ZZI  19 121
M  ZZM  20 7
M  ZZI  20 81
M  ZZM  21 10
M  ZZI  21 191
M  ZZM  22 28
M  ZZI  22 11
M  ZZM  23 10
M  ZZI  23 191
M  ZZM  24 28
M  ZZI  24 11
M  ZZM  25 3
M  ZZI  25 121
M  ZZM  26 7
M  ZZI  26 81
M  ZZM  27 1
M  ZZI  27 112
M  ZZM  28 5
M  ZZI  28 1
M  ZZM  29 5
M  ZZI  29 1
M  ZZM  30 64
M  ZZI  30 105
M  ZZM  31 63
M  ZZI  31 104
M  ZZM  32 5
M  ZZI  32 1
M  ZZM  33 59
M  ZZI  33 56
M  ZZM  34 63
M  ZZI  34 104
M  ZZM  35 64
M  ZZI  35 105
M  ZZM  36 37
M  ZZI  36 125
M  ZZM  37 5
M  ZZI  37 1
M  ZZM  38 37
M  ZZI  38 125
M  ZZM  39 5
M  ZZI  39 1
M  ZZM  40 37
M  ZZI  40 124
M  ZZM  41 37
M  ZZI  41 125
M  ZZM  42 5
M  ZZI  42 1
M  ZZM  43 6
M  ZZI  43 59
M  ZZM  44 1
M  ZZI  44 111
M  ZZM  45 5
M  ZZI  45 1
M  ZZM  46 5
M  ZZI  46 1
M  ZZM  47 5
M  ZZI  47 1
M  END
> <NAME>
Z27465044

> <Score>
-26.15398

> <Natom>
47

> <Nflex>
4

> <Hbond>
-5.103947

> <Hphob>
-6.338032

> <VwInt>
-30.221511

> <Eintl>
9.054139

> <Dsolv>
13.871791

> <SolEl>
12.762356

> <mfScore>
-94.884398

> <RecConf>
1

> <molLogP>
3.447818

$$$$
Z24701423
  MOLSOFT 11211612053D

 47 49  0  0  1  0  0  0  0  0999 V2000
  -32.0749   12.9499   67.4470 H   0  0  0
  -33.0611   12.4901   67.5037 C   0  0  0
  -33.8181   13.2366   67.2631 H   0  0  0
  -33.3006   11.8880   68.8664 C   0  0  0
  -32.7370   12.3857   69.6611 H   0  0  0
  -34.3632   11.9583   69.1110 H   0  0  0
  -32.9207   10.4565   68.6552 C   0  0  0
  -33.3707    9.7814   69.3904 H   0  0  0
  -31.8304   10.3511   68.6999 H   0  0  0
  -33.4278   10.2294   67.2490 C   0  0  1
  -34.5198   10.1648   67.2725 H   0  0  0
  -33.1107   11.4312   66.5374 O   0  0  0
  -32.8086    8.9917   66.5932 C   0  0  0
  -32.7175    8.1857   67.3290 H   0  0  0
  -31.8108    9.2206   66.2044 H   0  0  0
  -33.6246    8.4691   65.5066 N   0  0  0
  -34.8725    7.8985   65.5555 C   0  0  0
  -35.3116    7.4791   64.4110 N   0  0  0
  -34.2994    7.7928   63.5483 N   0  0  0
  -34.3509    7.6212   62.5487 H   0  0  0
  -33.2623    8.3927   64.1983 C   0  0  0
  -32.2223    8.7791   63.6888 O   0  0  0
  -35.7239    7.8388   67.1016 S   0  0  0
  -36.8004    6.4007   66.8612 C   0  0  0
  -37.5883    6.4211   67.6201 H   0  0  0
  -37.2910    6.4170   65.8915 H   0  0  0
  -35.9867    5.1398   67.0210 C   0  0  0
  -35.5540    4.5332   66.0518 O   0  0  0
  -35.8152    4.8135   68.3560 N   0  0  0
  -36.2129    5.4440   69.0408 H   0  0  0
  -35.1176    3.6877   68.8583 C   0  0  0
  -34.5337    2.7628   68.0050 C   0  0  0
  -34.5949    2.8572   66.9275 H   0  0  0
  -33.8536    1.6829   68.5135 C   0  0  0
  -33.3973    0.9640   67.8416 H   0  0  0
  -33.7500    1.5199   69.8734 C   0  0  0
  -33.2049    0.6667   70.2565 H   0  0  0
  -34.3222    2.4224   70.7517 C   0  0  0
  -34.1587    2.1801   72.2261 C   0  0  0
  -35.1327    2.0273   72.7019 H   0  0  0
  -33.6403    3.0199   72.6996 H   0  0  0
  -33.5594    1.2841   72.4136 H   0  0  0
  -35.0247    3.5211   70.2451 C   0  0  0
  -35.6714    4.5193   71.1735 C   0  0  0
  -36.7506    4.5686   70.9946 H   0  0  0
  -35.2322    5.5124   71.0337 H   0  0  0
  -35.5410    4.2620   72.2261 H   0  0  0
  2  1  1
  2  3  1
  2  4  1
  2 12  1
  4  5  1
  4  6  1
  4  7  1
  7  8  1
  7  9  1
 10  7  1
 10 11  1
 10 12  1
 10 13  1
 13 14  1
 13 15  1
 13 16  1
 16 17  1
 16 21  1
 17 18  2
 17 23  1
 18 19  1
 19 20  1
 19 21  1
 21 22  2
 23 24  1
 24 25  1
 24 26  1
 24 27  1
 27 28  2
 27 29  1
 29 30  1
 29 31  1
 31 32  2
 31 43  1
 32 33  1
 32 34  1
 34 35  1
 34 36  2
 36 37  1
 36 38  1
 38 39  1
 38 43  2
 39 40  1
 39 41  1
 39 42  1
 43 44  1
 44 45  1
 44 46  1
 44 47  1
M  ZZC   1 h1
M  ZZC   2 c17
M  ZZC   3 h2
M  ZZC   4 c16
M  ZZC   5 h3
M  ZZC   6 h4
M  ZZC   7 c15
M  ZZC   8 h5
M  ZZC   9 h6
M  ZZC  10 c14
M  ZZC  11 h21
M  ZZC  12 o3
M  ZZC  13 c13
M  ZZC  14 h7
M  ZZC  15 h8
M  ZZC  16 n4
M  ZZC  17 c11
M  ZZC  18 n2
M  ZZC  19 n3
M  ZZC  20 h22
M  ZZC  21 c12
M  ZZC  22 o2
M  ZZC  23 s1
M  ZZC  24 c10
M  ZZC  25 h10
M  ZZC  26 h9
M  ZZC  27 c9
M  ZZC  28 o1
M  ZZC  29 n1
M  ZZC  30 h11
M  ZZC  31 c6
M  ZZC  32 c5
M  ZZC  33 h15
M  ZZC  34 c4
M  ZZC  35 h16
M  ZZC  36 c3
M  ZZC  37 h17
M  ZZC  38 c2
M  ZZC  39 c1
M  ZZC  40 h18
M  ZZC  41 h19
M  ZZC  42 h20
M  ZZC  43 c7
M  ZZC  44 c8
M  ZZC  45 h12
M  ZZC  46 h13
M  ZZC  47 h14
M  ZZM   1 5
M  ZZI   1 1
M  ZZM   2 1
M  ZZI   2 112
M  ZZM   3 5
M  ZZI   3 1
M  ZZM   4 1
M  ZZI   4 112
M  ZZM   5 5
M  ZZI   5 1
M  ZZM   6 5
M  ZZI   6 1
M  ZZM   7 1
M  ZZI   7 112
M  ZZM   8 5
M  ZZI   8 1
M  ZZM   9 5
M  ZZI   9 1
M  ZZM  10 1
M  ZZI  10 113
M  ZZM  11 5
M  ZZI  11 1
M  ZZM  12 6
M  ZZI  12 65
M  ZZM  13 1
M  ZZI  13 112
M  ZZM  14 5
M  ZZI  14 1
M  ZZM  15 5
M  ZZI  15 1
M  ZZM  16 10
M  ZZI  16 192
M  ZZM  17 3
M  ZZI  17 121
M  ZZM  18 9
M  ZZI  18 220
M  ZZM  19 10
M  ZZI  19 191
M  ZZM  20 28
M  ZZI  20 11
M  ZZM  21 3
M  ZZI  21 121
M  ZZM  22 7
M  ZZI  22 81
M  ZZM  23 15
M  ZZI  23 240
M  ZZM  24 1
M  ZZI  24 112
M  ZZM  25 5
M  ZZI  25 1
M  ZZM  26 5
M  ZZI  26 1
M  ZZM  27 3
M  ZZI  27 121
M  ZZM  28 7
M  ZZI  28 81
M  ZZM  29 10
M  ZZI  29 191
M  ZZM  30 28
M  ZZI  30 11
M  ZZM  31 37
M  ZZI  31 124
M  ZZM  32 37
M  ZZI  32 125
M  ZZM  33 5
M  ZZI  33 1
M  ZZM  34 37
M  ZZI  34 125
M  ZZM  35 5
M  ZZI  35 1
M  ZZM  36 37
M  ZZI  36 125
M  ZZM  37 5
M  ZZI  37 1
M  ZZM  38 37
M  ZZI  38 124
M  ZZM  39 1
M  ZZI  39 111
M  ZZM  40 5
M  ZZI  40 1
M  ZZM  41 5
M  ZZI  41 1
M  ZZM  42 5
M  ZZI  42 1
M  ZZM  43 37
M  ZZI  43 124
M  ZZM  44 1
M  ZZI  44 111
M  ZZM  45 5
M  ZZI  45 1
M  ZZM  46 5
M  ZZI  46 1
M  ZZM  47 5
M  ZZI  47 1
M  END
> <NAME>
Z24701423

> <Score>
-26.08678

> <Natom>
47

> <Nflex>
4

> <Hbond>
-4.920498

> <Hphob>
-5.38148

> <VwInt>
-28.524502

> <Eintl>
9.241383

> <Dsolv>
15.097759

> <SolEl>
7.225538

> <mfScore>
-75.518633

> <RecConf>
1

> <molLogP>
2.003969

$$$$
Z68331593
  MOLSOFT 11211612053D

 47 50  0  0  0  0  0  0  0  0999 V2000
  -32.1083   12.5746   67.3482 H   0  0  0
  -32.9029   11.8453   67.4462 C   0  0  0
  -33.3884   11.5320   68.6961 C   0  0  0
  -32.9775   12.0025   69.5830 H   0  0  0
  -34.4035   10.6067   68.7858 C   0  0  0
  -34.8058   10.3141   69.7490 H   0  0  0
  -34.8919   10.0567   67.6206 C   0  0  0
  -35.7049    9.3404   67.6652 H   0  0  0
  -34.3340   10.4133   66.4010 C   0  0  0
  -33.3367   11.3098   66.2935 N   0  0  0
  -34.8229    9.7645   65.1343 C   0  0  0
  -34.6965   10.4628   64.3029 H   0  0  0
  -35.8966    9.5624   65.2181 H   0  0  0
  -34.0615    8.4833   64.8142 C   0  0  0
  -32.9885    8.6800   64.7188 H   0  0  0
  -34.4136    8.0642   63.8657 H   0  0  0
  -34.2150    7.4807   65.8492 N   0  0  0
  -33.5534    7.4877   66.6187 H   0  0  0
  -35.2045    6.5210   65.8319 C   0  0  0
  -36.0296    6.4307   64.9367 O   0  0  0
  -35.1506    5.6440   66.9637 C   0  0  0
  -35.0544    4.2514   66.9789 C   0  0  0
  -35.0056    3.6140   66.1060 H   0  0  0
  -34.9399    3.8445   68.3268 C   0  0  0
  -34.7108    2.6371   69.0160 C   0  0  0
  -34.4842    1.2810   68.4872 C   0  0  0
  -35.4175    0.8352   68.1335 H   0  0  0
  -34.0710    0.6457   69.2721 H   0  0  0
  -33.7564    1.3015   67.6710 H   0  0  0
  -34.6972    2.8700   70.3468 N   0  0  0
  -34.8975    4.2183   70.4630 N   0  0  0
  -35.0205    4.8156   69.2413 C   0  0  0
  -35.2022    6.3614   68.5625 S   0  0  0
  -34.9112    4.8582   71.7746 C   0  0  0
  -34.2701    5.7445   71.7128 H   0  0  0
  -34.4553    4.1694   72.4944 H   0  0  0
  -36.3128    5.2147   72.1917 C   0  0  0
  -37.2365    4.2226   72.4924 C   0  0  0
  -36.9606    3.1737   72.4277 H   0  0  0
  -38.5165    4.5552   72.8832 C   0  0  0
  -39.2236    3.7686   73.1263 H   0  0  0
  -38.8907    5.8809   72.9664 C   0  0  0
  -39.8949    6.1538   73.2671 H   0  0  0
  -37.9846    6.8715   72.6672 C   0  0  0
  -38.2825    7.9123   72.7369 H   0  0  0
  -36.7018    6.5430   72.2835 C   0  0  0
  -36.0033    7.3418   72.0527 H   0  0  0
  2  1  1
  2  3  1
  2 10  2
  3  4  1
  3  5  2
  5  6  1
  5  7  1
  7  8  1
  7  9  2
  9 10  1
  9 11  1
 11 12  1
 11 13  1
 11 14  1
 14 15  1
 14 16  1
 14 17  1
 17 18  1
 17 19  1
 19 20  2
 19 21  1
 21 22  2
 21 33  1
 22 23  1
 22 24  1
 24 25  1
 24 32  2
 25 26  1
 25 30  2
 26 27  1
 26 28  1
 26 29  1
 30 31  1
 31 32  1
 31 34  1
 32 33  1
 34 35  1
 34 36  1
 34 37  1
 37 38  1
 37 46  2
 38 39  1
 38 40  2
 40 41  1
 40 42  1
 42 43  1
 42 44  2
 44 45  1
 44 46  1
 46 47  1
M  ZZC   1 h1
M  ZZC   2 c21
M  ZZC   3 c20
M  ZZC   4 h2
M  ZZC   5 c19
M  ZZC   6 h3
M  ZZC   7 c18
M  ZZC   8 h4
M  ZZC   9 c17
M  ZZC  10 n4
M  ZZC  11 c16
M  ZZC  12 h5
M  ZZC  13 h6
M  ZZC  14 c15
M  ZZC  15 h7
M  ZZC  16 h8
M  ZZC  17 n3
M  ZZC  18 h9
M  ZZC  19 c14
M  ZZC  20 o1
M  ZZC  21 c5
M  ZZC  22 c4
M  ZZC  23 h17
M  ZZC  24 c3
M  ZZC  25 c2
M  ZZC  26 c1
M  ZZC  27 h18
M  ZZC  28 h19
M  ZZC  29 h20
M  ZZC  30 n2
M  ZZC  31 n1
M  ZZC  32 c6
M  ZZC  33 s1
M  ZZC  34 c7
M  ZZC  35 h15
M  ZZC  36 h16
M  ZZC  37 c8
M  ZZC  38 c13
M  ZZC  39 h10
M  ZZC  40 c12
M  ZZC  41 h11
M  ZZC  42 c11
M  ZZC  43 h12
M  ZZC  44 c10
M  ZZC  45 h13
M  ZZC  46 c9
M  ZZC  47 h14
M  ZZM   1 5
M  ZZI   1 1
M  ZZM   2 37
M  ZZI   2 125
M  ZZM   3 37
M  ZZI   3 125
M  ZZM   4 5
M  ZZI   4 1
M  ZZM   5 37
M  ZZI   5 125
M  ZZM   6 5
M  ZZI   6 1
M  ZZM   7 37
M  ZZI   7 125
M  ZZM   8 5
M  ZZI   8 1
M  ZZM   9 37
M  ZZI   9 124
M  ZZM  10 38
M  ZZI  10 223
M  ZZM  11 1
M  ZZI  11 112
M  ZZM  12 5
M  ZZI  12 1
M  ZZM  13 5
M  ZZI  13 1
M  ZZM  14 1
M  ZZI  14 112
M  ZZM  15 5
M  ZZI  15 1
M  ZZM  16 5
M  ZZI  16 1
M  ZZM  17 10
M  ZZI  17 211
M  ZZM  18 28
M  ZZI  18 11
M  ZZM  19 3
M  ZZI  19 121
M  ZZM  20 7
M  ZZI  20 81
M  ZZM  21 63
M  ZZI  21 104
M  ZZM  22 64
M  ZZI  22 105
M  ZZM  23 5
M  ZZI  23 1
M  ZZM  24 64
M  ZZI  24 105
M  ZZM  25 64
M  ZZI  25 105
M  ZZM  26 1
M  ZZI  26 111
M  ZZM  27 5
M  ZZI  27 1
M  ZZM  28 5
M  ZZI  28 1
M  ZZM  29 5
M  ZZI  29 1
M  ZZM  30 65
M  ZZI  30 207
M  ZZM  31 39
M  ZZI  31 215
M  ZZM  32 63
M  ZZI  32 104
M  ZZM  33 44
M  ZZI  33 248
M  ZZM  34 1
M  ZZI  34 112
M  ZZM  35 5
M  ZZI  35 1
M  ZZM  36 5
M  ZZI  36 1
M  ZZM  37 37
M  ZZI  37 124
M  ZZM  38 37
M  ZZI  38 125
M  ZZM  39 5
M  ZZI  39 1
M  ZZM  40 37
M  ZZI  40 125
M  ZZM  41 5
M  ZZI  41 1
M  ZZM  42 37
M  ZZI  42 125
M  ZZM  43 5
M  ZZI  43 1
M  ZZM  44 37
M  ZZI  44 125
M  ZZM  45 5
M  ZZI  45 1
M  ZZM  46 37
M  ZZI  46 125
M  ZZM  47 5
M  ZZI  47 1
M  END
> <NAME>
Z68331593

> <Score>
-26.044684

> <Natom>
47

> <Nflex>
5

> <Hbond>
-3.178799

> <Hphob>
-7.81696

> <VwInt>
-28.373552

> <Eintl>
5.738305

> <Dsolv>
11.319894

> <SolEl>
6.240415

> <mfScore>
-89.5384

> <RecConf>
1

> <molLogP>
3.67937

$$$$
Z1268664088
  MOLSOFT 11211612053D

 47 50  0  0  1  0  0  0  0  0999 V2000
  -35.1216   11.3474   67.4119 H   0  0  0
  -34.2286   10.8804   67.2928 N   0  0  0
  -33.1380   11.0999   68.1145 C   0  0  0
  -33.1786   12.0400   69.2480 C   0  0  0
  -32.1663   12.2784   69.5839 H   0  0  0
  -33.7332   11.5933   70.0773 H   0  0  0
  -33.6741   12.9660   68.9438 H   0  0  0
  -32.1525   10.2747   67.6243 C   0  0  0
  -31.1344   10.0629   67.9199 H   0  0  0
  -32.6717    9.6210   66.5135 N   0  0  0
  -33.9434    9.9841   66.3416 C   0  3  0
  -34.8267    9.4835   65.2497 C   0  0  1
  -34.9191   10.3793   64.6294 H   0  0  0
  -34.1515    8.4048   64.3862 C   0  0  0
  -34.6073    8.3774   63.3917 H   0  0  0
  -34.2926    7.4086   64.8128 H   0  0  0
  -32.6492    8.6445   64.2717 C   0  0  0
  -32.4696    9.5986   63.7663 H   0  0  0
  -32.1921    7.8644   63.6553 H   0  0  0
  -31.9971    8.6642   65.6502 C   0  0  0
  -32.0685    7.6812   66.1265 H   0  0  0
  -30.9383    8.9299   65.5740 H   0  0  0
  -36.2378    9.0936   65.7177 C   0  0  0
  -36.9326    9.2632   64.8935 H   0  0  0
  -36.5799    9.7498   66.5227 H   0  0  0
  -36.3899    7.6922   66.1251 N   0  0  0
  -37.3838    7.5116   66.2873 H   0  0  0
  -35.6617    7.3816   67.3619 C   0  0  0
  -34.6397    7.7626   67.3252 H   0  0  0
  -36.1576    7.8705   68.2053 H   0  0  0
  -35.5416    5.9063   67.6226 C   0  0  0
  -35.4422    4.9857   66.5851 C   0  0  0
  -35.5195    5.3086   65.5520 H   0  0  0
  -35.2098    3.6496   66.8440 C   0  0  0
  -35.1138    2.9437   66.0252 H   0  0  0
  -35.0587    3.2183   68.1443 C   0  0  0
  -35.1900    4.1209   69.1928 C   0  0  0
  -35.4163    5.4553   68.9289 C   0  0  0
  -35.4824    6.1513   69.7598 H   0  0  0
  -35.0961    3.7680   70.5339 O   0  0  0
  -35.1570    2.3491   70.6483 C   0  0  0
  -36.1950    2.0219   70.5197 H   0  0  0
  -34.8425    2.0877   71.6629 H   0  0  0
  -34.2323    1.7115   69.6387 C   0  0  0
  -34.1555    0.6424   69.8295 H   0  0  0
  -33.2226    2.1316   69.6806 H   0  0  0
  -34.7517    1.8772   68.3239 O   0  0  0
  2  1  1
  2  3  1
  2 11  2
  3  4  1
  3  8  2
  4  5  1
  4  6  1
  4  7  1
  8  9  1
  8 10  1
 10 11  1
 10 20  1
 12 11  1
 12 13  1
 12 14  1
 12 23  1
 14 15  1
 14 16  1
 14 17  1
 17 18  1
 17 19  1
 17 20  1
 20 21  1
 20 22  1
 23 24  1
 23 25  1
 23 26  1
 26 27  1
 26 28  1
 28 29  1
 28 30  1
 28 31  1
 31 32  1
 31 38  2
 32 33  1
 32 34  2
 34 35  1
 34 36  1
 36 37  2
 36 47  1
 37 38  1
 37 40  1
 38 39  1
 40 41  1
 41 42  1
 41 43  1
 41 44  1
 44 45  1
 44 46  1
 44 47  1
M  ZZC   1 h1
M  ZZC   2 n2
M  ZZC   3 c2
M  ZZC   4 c1
M  ZZC   5 h21
M  ZZC   6 h22
M  ZZC   7 h23
M  ZZC   8 c3
M  ZZC   9 h20
M  ZZC  10 n1
M  ZZC  11 c4
M  ZZC  12 c5
M  ZZC  13 h24
M  ZZC  14 c6
M  ZZC  15 h18
M  ZZC  16 h19
M  ZZC  17 c7
M  ZZC  18 h16
M  ZZC  19 h17
M  ZZC  20 c8
M  ZZC  21 h14
M  ZZC  22 h15
M  ZZC  23 c9
M  ZZC  24 h12
M  ZZC  25 h13
M  ZZC  26 n3
M  ZZC  27 h11
M  ZZC  28 c10
M  ZZC  29 h10
M  ZZC  30 h9
M  ZZC  31 c11
M  ZZC  32 c12
M  ZZC  33 h8
M  ZZC  34 c13
M  ZZC  35 h7
M  ZZC  36 c14
M  ZZC  37 c15
M  ZZC  38 c16
M  ZZC  39 h6
M  ZZC  40 o1
M  ZZC  41 c17
M  ZZC  42 h4
M  ZZC  43 h5
M  ZZC  44 c18
M  ZZC  45 h2
M  ZZC  46 h3
M  ZZC  47 o2
M  ZZM   1 36
M  ZZI   1 17
M  ZZM   2 81
M  ZZI   2 233
M  ZZM   3 78
M  ZZI   3 106
M  ZZM   4 1
M  ZZI   4 111
M  ZZM   5 5
M  ZZI   5 1
M  ZZM   6 5
M  ZZI   6 1
M  ZZM   7 5
M  ZZI   7 1
M  ZZM   8 78
M  ZZI   8 106
M  ZZM   9 5
M  ZZI   9 1
M  ZZM  10 81
M  ZZI  10 233
M  ZZM  11 80
M  ZZI  11 107
M  ZZM  12 1
M  ZZI  12 113
M  ZZM  13 5
M  ZZI  13 1
M  ZZM  14 1
M  ZZI  14 112
M  ZZM  15 5
M  ZZI  15 1
M  ZZM  16 5
M  ZZI  16 1
M  ZZM  17 1
M  ZZI  17 112
M  ZZM  18 5
M  ZZI  18 1
M  ZZM  19 5
M  ZZI  19 1
M  ZZM  20 1
M  ZZI  20 112
M  ZZM  21 5
M  ZZI  21 1
M  ZZM  22 5
M  ZZI  22 1
M  ZZM  23 1
M  ZZI  23 112
M  ZZM  24 5
M  ZZI  24 1
M  ZZM  25 5
M  ZZI  25 1
M  ZZM  26 8
M  ZZI  26 214
M  ZZM  27 23
M  ZZI  27 10
M  ZZM  28 1
M  ZZI  28 112
M  ZZM  29 5
M  ZZI  29 1
M  ZZM  30 5
M  ZZI  30 1
M  ZZM  31 37
M  ZZI  31 124
M  ZZM  32 37
M  ZZI  32 125
M  ZZM  33 5
M  ZZI  33 1
M  ZZM  34 37
M  ZZI  34 125
M  ZZM  35 5
M  ZZI  35 1
M  ZZM  36 37
M  ZZI  36 124
M  ZZM  37 37
M  ZZI  37 124
M  ZZM  38 37
M  ZZI  38 125
M  ZZM  39 5
M  ZZI  39 1
M  ZZM  40 6
M  ZZI  40 59
M  ZZM  41 1
M  ZZI  41 112
M  ZZM  42 5
M  ZZI  42 1
M  ZZM  43 5
M  ZZI  43 1
M  ZZM  44 1
M  ZZI  44 112
M  ZZM  45 5
M  ZZI  45 1
M  ZZM  46 5
M  ZZI  46 1
M  ZZM  47 6
M  ZZI  47 59
M  CHG  1  11   1
M  END
> <NAME>
Z1268664088

> <Score>
-25.852823

> <Natom>
47

> <Nflex>
4

> <Hbond>
-3.694604

> <Hphob>
-7.092388

> <VwInt>
-27.450362

> <Eintl>
8.148383

> <Dsolv>
9.658034

> <SolEl>
9.171607

> <mfScore>
-97.363532

> <RecConf>
1

> <molLogP>
2.07305

$$$$
Z1139321949
  MOLSOFT 11211612053D

 47 50  0  0  1  0  0  0  0  0999 V2000
  -39.3922    5.8521   71.6333 H   0  0  0
  -38.6943    5.9063   72.4701 C   0  0  0
  -38.2149    6.8898   72.5252 H   0  0  0
  -39.2863    5.7695   73.3722 H   0  0  0
  -37.7156    4.8620   72.4138 O   0  0  0
  -36.9986    4.8562   71.2149 C   0  0  0
  -35.9948    3.9153   71.1134 C   0  0  0
  -35.8158    3.2375   71.9419 H   0  0  0
  -35.2226    3.8084   69.9727 C   0  0  0
  -34.4490    3.0504   69.9031 H   0  0  0
  -35.4719    4.6769   68.9192 C   0  0  0
  -34.9311    4.8300   67.6207 C   0  0  0
  -34.1723    4.2035   67.1747 H   0  0  0
  -35.5985    5.8608   66.9895 C   0  0  0
  -36.5500    6.3058   67.8626 N   0  0  0
  -37.2580    6.9952   67.6384 H   0  0  0
  -36.4842    5.6101   69.0410 C   0  0  0
  -37.2667    5.7229   70.1687 C   0  0  0
  -38.0641    6.4474   70.2023 H   0  0  0
  -35.4982    6.2887   65.6276 C   0  0  0
  -36.2707    5.8561   64.7915 O   0  0  0
  -34.5045    7.2019   65.3051 N   0  0  0
  -33.7838    8.0847   66.2045 C   0  0  1
  -33.5279    7.5689   67.1362 H   0  0  0
  -32.5318    8.4161   65.3977 C   0  0  0
  -31.8156    7.5942   65.4760 H   0  0  0
  -32.0099    9.3238   65.7099 H   0  0  0
  -33.0425    8.4902   63.9737 C   0  0  0
  -32.2561    8.3439   63.2266 H   0  0  0
  -33.4997    9.4672   63.7899 H   0  0  0
  -34.0976    7.4032   63.9278 C   0  0  0
  -33.6855    6.4620   63.5520 H   0  0  0
  -34.9559    7.6735   63.3052 H   0  0  0
  -34.6573    9.3185   66.5063 C   0  0  0
  -34.9909    9.8239   65.5931 H   0  0  0
  -35.5668    9.0288   67.0429 H   0  0  0
  -33.9904   10.3198   67.3276 N   0  0  0
  -33.9793   10.3672   68.6964 C   0  0  0
  -34.4818    9.6232   69.2993 H   0  0  0
  -33.2302   11.4705   69.0322 C   0  0  0
  -32.8883   11.9610   70.3829 C   0  0  0
  -33.7835   12.2740   70.9255 H   0  0  0
  -32.2182   12.8230   70.3197 H   0  0  0
  -32.3886   11.1827   70.9659 H   0  0  0
  -32.8589   12.0298   67.7871 C   0  0  0
  -32.2604   12.9094   67.6052 H   0  0  0
  -33.3299   11.3430   66.7412 N   0  0  0
  2  1  1
  2  3  1
  2  4  1
  2  5  1
  5  6  1
  6  7  1
  6 18  2
  7  8  1
  7  9  2
  9 10  1
  9 11  1
 11 12  1
 11 17  2
 12 13  1
 12 14  2
 14 15  1
 14 20  1
 15 16  1
 15 17  1
 17 18  1
 18 19  1
 20 21  2
 20 22  1
 23 22  1
 22 31  1
 23 24  1
 23 25  1
 23 34  1
 25 26  1
 25 27  1
 25 28  1
 28 29  1
 28 30  1
 28 31  1
 31 32  1
 31 33  1
 34 35  1
 34 36  1
 34 37  1
 37 38  1
 37 47  1
 38 39  1
 38 40  2
 40 41  1
 40 45  1
 41 42  1
 41 43  1
 41 44  1
 45 46  1
 45 47  2
M  ZZC   1 h1
M  ZZC   2 c19
M  ZZC   3 h2
M  ZZC   4 h3
M  ZZC   5 o2
M  ZZC   6 c16
M  ZZC   7 c15
M  ZZC   8 h5
M  ZZC   9 c14
M  ZZC  10 h6
M  ZZC  11 c13
M  ZZC  12 c12
M  ZZC  13 h7
M  ZZC  14 c11
M  ZZC  15 n4
M  ZZC  16 h21
M  ZZC  17 c18
M  ZZC  18 c17
M  ZZC  19 h4
M  ZZC  20 c10
M  ZZC  21 o1
M  ZZC  22 n3
M  ZZC  23 c6
M  ZZC  24 h22
M  ZZC  25 c7
M  ZZC  26 h12
M  ZZC  27 h13
M  ZZC  28 c8
M  ZZC  29 h10
M  ZZC  30 h11
M  ZZC  31 c9
M  ZZC  32 h8
M  ZZC  33 h9
M  ZZC  34 c5
M  ZZC  35 h14
M  ZZC  36 h15
M  ZZC  37 n2
M  ZZC  38 c4
M  ZZC  39 h16
M  ZZC  40 c2
M  ZZC  41 c1
M  ZZC  42 h18
M  ZZC  43 h19
M  ZZC  44 h20
M  ZZC  45 c3
M  ZZC  46 h17
M  ZZC  47 n1
M  ZZM   1 5
M  ZZI   1 1
M  ZZM   2 1
M  ZZI   2 111
M  ZZM   3 5
M  ZZI   3 1
M  ZZM   4 5
M  ZZI   4 1
M  ZZM   5 6
M  ZZI   5 59
M  ZZM   6 37
M  ZZI   6 124
M  ZZM   7 37
M  ZZI   7 125
M  ZZM   8 5
M  ZZI   8 1
M  ZZM   9 37
M  ZZI   9 125
M  ZZM  10 5
M  ZZI  10 1
M  ZZM  11 64
M  ZZI  11 105
M  ZZM  12 64
M  ZZI  12 105
M  ZZM  13 5
M  ZZI  13 1
M  ZZM  14 63
M  ZZI  14 104
M  ZZM  15 39
M  ZZI  15 215
M  ZZM  16 23
M  ZZI  16 10
M  ZZM  17 63
M  ZZI  17 104
M  ZZM  18 37
M  ZZI  18 125
M  ZZM  19 5
M  ZZI  19 1
M  ZZM  20 3
M  ZZI  20 121
M  ZZM  21 7
M  ZZI  21 81
M  ZZM  22 10
M  ZZI  22 192
M  ZZM  23 1
M  ZZI  23 113
M  ZZM  24 5
M  ZZI  24 1
M  ZZM  25 1
M  ZZI  25 112
M  ZZM  26 5
M  ZZI  26 1
M  ZZM  27 5
M  ZZI  27 1
M  ZZM  28 1
M  ZZI  28 112
M  ZZM  29 5
M  ZZI  29 1
M  ZZM  30 5
M  ZZI  30 1
M  ZZM  31 1
M  ZZI  31 112
M  ZZM  32 5
M  ZZI  32 1
M  ZZM  33 5
M  ZZI  33 1
M  ZZM  34 1
M  ZZI  34 112
M  ZZM  35 5
M  ZZI  35 1
M  ZZM  36 5
M  ZZI  36 1
M  ZZM  37 39
M  ZZI  37 215
M  ZZM  38 63
M  ZZI  38 104
M  ZZM  39 5
M  ZZI  39 1
M  ZZM  40 64
M  ZZI  40 105
M  ZZM  41 1
M  ZZI  41 111
M  ZZM  42 5
M  ZZI  42 1
M  ZZM  43 5
M  ZZI  43 1
M  ZZM  44 5
M  ZZI  44 1
M  ZZM  45 64
M  ZZI  45 105
M  ZZM  46 5
M  ZZI  46 1
M  ZZM  47 65
M  ZZI  47 207
M  END
> <NAME>
Z1139321949

> <Score>
-25.751605

> <Natom>
47

> <Nflex>
3

> <Hbond>
-3.238065

> <Hphob>
-7.486062

> <VwInt>
-24.550875

> <Eintl>
8.217515

> <Dsolv>
9.421237

> <SolEl>
4.759558

> <mfScore>
-92.792215

> <RecConf>
1

> <molLogP>
2.508507

$$$$
Z1284832678
  MOLSOFT 11211612053D

 47 48  0  0  1  0  0  0  0  0999 V2000
  -32.3722   10.2878   71.5606 H   0  0  0
  -32.3694    9.6781   70.6521 C   0  0  0
  -32.8211    8.7134   70.9082 H   0  0  0
  -30.9689    9.4473   70.1318 C   0  0  0
  -30.3963   10.3815   70.1331 H   0  0  0
  -30.4198    8.7069   70.7211 H   0  0  0
  -31.2266    8.9831   68.7203 C   0  0  0
  -30.3287    9.0073   68.0956 H   0  0  0
  -31.5940    7.9549   68.7394 H   0  0  0
  -32.3138    9.9154   68.2204 C   0  0  2
  -31.8485   10.8018   67.7749 H   0  0  0
  -33.1187   10.2947   69.4710 C   0  0  1
  -34.1445    9.9078   69.4371 H   0  0  0
  -33.2147   11.7995   69.6072 C   0  0  0
  -32.7723   12.4303   70.5530 O   0  0  0
  -33.8951   12.3988   68.5888 N   0  0  0
  -34.0632   13.3944   68.6232 H   0  0  0
  -34.2563   11.9020   67.7828 H   0  0  0
  -33.1494    9.2779   67.2130 N   0  0  0
  -33.4337    8.3123   67.3442 H   0  0  0
  -33.6304    9.9725   66.1234 C   0  0  0
  -33.3016   11.1186   65.8639 O   0  0  0
  -34.6134    9.2136   65.2670 C   0  0  0
  -34.8502    9.8465   64.4061 H   0  0  0
  -34.1354    8.3032   64.8893 H   0  0  0
  -35.8902    8.9160   66.0489 C   0  0  0
  -36.1719    9.7561   66.6913 H   0  0  0
  -36.7167    8.7226   65.3579 H   0  0  0
  -35.7278    7.7563   66.9004 N   0  0  0
  -35.5118    7.9007   67.8798 H   0  0  0
  -35.8528    6.4793   66.3931 C   0  0  0
  -36.2098    6.2447   65.2473 O   0  0  0
  -35.5020    5.3443   67.2952 C   0  0  0
  -35.3208    5.4754   68.6737 C   0  0  0
  -35.4711    6.7476   69.2381 O   0  0  0
  -35.3028    6.7914   70.6600 C   0  0  0
  -36.0606    6.1410   71.1038 H   0  0  0
  -35.4743    7.8003   71.0491 H   0  0  0
  -34.3208    6.4050   70.9533 H   0  0  0
  -34.9983    4.3488   69.4258 C   0  0  0
  -34.8574    4.3916   70.4991 H   0  0  0
  -34.8355    3.1236   68.8119 C   0  0  0
  -34.5755    2.2500   69.4018 H   0  0  0
  -34.9976    3.0026   67.4502 C   0  0  0
  -34.8617    2.0389   66.9710 H   0  0  0
  -35.3383    4.1027   66.6948 C   0  0  0
  -35.4656    3.9777   65.6245 H   0  0  0
  2  1  1
  2  3  1
  2  4  1
 12  2  1
  4  5  1
  4  6  1
  4  7  1
  7  8  1
  7  9  1
 10  7  1
 10 11  1
 10 12  1
 10 19  1
 12 13  1
 12 14  1
 14 15  2
 14 16  1
 16 17  1
 16 18  1
 19 20  1
 19 21  1
 21 22  2
 21 23  1
 23 24  1
 23 25  1
 23 26  1
 26 27  1
 26 28  1
 26 29  1
 29 30  1
 29 31  1
 31 32  2
 31 33  1
 33 34  1
 33 46  2
 34 35  1
 34 40  2
 35 36  1
 36 37  1
 36 38  1
 36 39  1
 40 41  1
 40 42  1
 42 43  1
 42 44  2
 44 45  1
 44 46  1
 46 47  1
M  ZZC   1 h3
M  ZZC   2 c15
M  ZZC   3 h4
M  ZZC   4 c14
M  ZZC   5 h5
M  ZZC   6 h6
M  ZZC   7 c13
M  ZZC   8 h7
M  ZZC   9 h8
M  ZZC  10 c12
M  ZZC  11 h23
M  ZZC  12 c16
M  ZZC  13 h22
M  ZZC  14 c17
M  ZZC  15 o4
M  ZZC  16 n3
M  ZZC  17 h1
M  ZZC  18 h2
M  ZZC  19 n2
M  ZZC  20 h9
M  ZZC  21 c11
M  ZZC  22 o3
M  ZZC  23 c10
M  ZZC  24 h10
M  ZZC  25 h11
M  ZZC  26 c9
M  ZZC  27 h12
M  ZZC  28 h13
M  ZZC  29 n1
M  ZZC  30 h14
M  ZZC  31 c8
M  ZZC  32 o2
M  ZZC  33 c7
M  ZZC  34 c2
M  ZZC  35 o1
M  ZZC  36 c1
M  ZZC  37 h19
M  ZZC  38 h20
M  ZZC  39 h21
M  ZZC  40 c3
M  ZZC  41 h18
M  ZZC  42 c4
M  ZZC  43 h17
M  ZZC  44 c5
M  ZZC  45 h16
M  ZZC  46 c6
M  ZZC  47 h15
M  ZZM   1 5
M  ZZI   1 1
M  ZZM   2 1
M  ZZI   2 112
M  ZZM   3 5
M  ZZI   3 1
M  ZZM   4 1
M  ZZI   4 112
M  ZZM   5 5
M  ZZI   5 1
M  ZZM   6 5
M  ZZI   6 1
M  ZZM   7 1
M  ZZI   7 112
M  ZZM   8 5
M  ZZI   8 1
M  ZZM   9 5
M  ZZI   9 1
M  ZZM  10 1
M  ZZI  10 113
M  ZZM  11 5
M  ZZI  11 1
M  ZZM  12 1
M  ZZI  12 113
M  ZZM  13 5
M  ZZI  13 1
M  ZZM  14 3
M  ZZI  14 121
M  ZZM  15 7
M  ZZI  15 81
M  ZZM  16 10
M  ZZI  16 212
M  ZZM  17 28
M  ZZI  17 11
M  ZZM  18 28
M  ZZI  18 11
M  ZZM  19 10
M  ZZI  19 211
M  ZZM  20 28
M  ZZI  20 11
M  ZZM  21 3
M  ZZI  21 121
M  ZZM  22 7
M  ZZI  22 81
M  ZZM  23 1
M  ZZI  23 112
M  ZZM  24 5
M  ZZI  24 1
M  ZZM  25 5
M  ZZI  25 1
M  ZZM  26 1
M  ZZI  26 112
M  ZZM  27 5
M  ZZI  27 1
M  ZZM  28 5
M  ZZI  28 1
M  ZZM  29 10
M  ZZI  29 211
M  ZZM  30 28
M  ZZI  30 11
M  ZZM  31 3
M  ZZI  31 121
M  ZZM  32 7
M  ZZI  32 81
M  ZZM  33 37
M  ZZI  33 124
M  ZZM  34 37
M  ZZI  34 124
M  ZZM  35 6
M  ZZI  35 59
M  ZZM  36 1
M  ZZI  36 111
M  ZZM  37 5
M  ZZI  37 1
M  ZZM  38 5
M  ZZI  38 1
M  ZZM  39 5
M  ZZI  39 1
M  ZZM  40 37
M  ZZI  40 125
M  ZZM  41 5
M  ZZI  41 1
M  ZZM  42 37
M  ZZI  42 125
M  ZZM  43 5
M  ZZI  43 1
M  ZZM  44 37
M  ZZI  44 125
M  ZZM  45 5
M  ZZI  45 1
M  ZZM  46 37
M  ZZI  46 125
M  ZZM  47 5
M  ZZI  47 1
M  END
> <NAME>
Z1284832678

> <Score>
-25.73529

> <Natom>
47

> <Nflex>
5

> <Hbond>
-5.067955

> <Hphob>
-5.708377

> <VwInt>
-28.122983

> <Eintl>
5.971987

> <Dsolv>
12.476641

> <SolEl>
10.116292

> <mfScore>
-87.995357

> <RecConf>
1

> <molLogP>
0.623435

$$$$
Z960117062
  MOLSOFT 11211612053D

 47 48  0  0  0  0  0  0  0  0999 V2000
  -39.8893    6.6793   72.8485 H   0  0  0
  -38.8121    6.6399   72.7421 C   0  0  0
  -38.2637    7.5691   72.8525 H   0  0  0
  -38.1927    5.4837   72.4752 C   0  0  0
  -38.7843    4.5799   72.3807 H   0  0  0
  -36.7096    5.3508   72.3156 C   0  0  0
  -36.2146    6.3112   72.4980 H   0  0  0
  -36.3493    4.6758   73.0967 H   0  0  0
  -36.2950    4.8593   70.9498 C   0  0  0
  -35.4546    3.7633   70.7731 C   0  0  0
  -34.9871    3.0780   71.8929 O   0  0  0
  -35.8163    1.9272   72.1079 C   0  0  0
  -35.4637    1.3530   72.9706 H   0  0  0
  -35.7514    1.2882   71.2235 H   0  0  0
  -36.8642    2.2100   72.2488 H   0  0  0
  -35.0299    3.3778   69.5055 C   0  0  0
  -34.1601    2.2835   69.4301 O   0  0  0
  -34.1353    1.6670   68.1396 C   0  0  0
  -33.5680    0.7375   68.2241 H   0  0  0
  -33.6248    2.2954   67.4050 H   0  0  0
  -35.1471    1.4133   67.8112 H   0  0  0
  -35.4400    4.1009   68.3925 C   0  0  0
  -35.0949    3.8463   67.3967 H   0  0  0
  -36.2794    5.1937   68.5492 C   0  0  0
  -36.7097    5.5442   69.8190 C   0  0  0
  -37.3727    6.3938   69.9313 H   0  0  0
  -36.6715    6.0366   67.3675 C   0  0  0
  -36.5136    5.4936   66.4294 H   0  0  0
  -37.7344    6.2944   67.4190 H   0  0  0
  -35.9191    7.2688   67.3478 N   0  0  0
  -35.5989    7.6504   68.2286 H   0  0  0
  -35.6121    7.9096   66.1744 C   0  0  0
  -35.9593    7.4832   65.0821 O   0  0  0
  -34.8302    9.1033   66.3653 C   0  0  0
  -34.7160    9.9350   67.4617 C   0  0  0
  -35.2222    9.8438   68.4127 H   0  0  0
  -33.8040   10.9480   67.0937 C   0  0  0
  -33.3234   12.0682   67.9318 C   0  0  0
  -34.1585   12.6954   68.2514 H   0  0  0
  -32.6119   12.6973   67.3909 H   0  0  0
  -32.8241   11.6910   68.8284 H   0  0  0
  -33.3821   10.7994   65.8319 N   0  0  0
  -33.9806    9.6520   65.4322 N   0  0  0
  -33.6230    9.0779   64.1415 C   0  0  0
  -34.4852    9.1777   63.4779 H   0  0  0
  -33.3605    8.0249   64.2854 H   0  0  0
  -32.7593    9.6177   63.7426 H   0  0  0
  2  1  1
  2  3  1
  2  4  2
  4  5  1
  4  6  1
  6  7  1
  6  8  1
  6  9  1
  9 10  2
  9 25  1
 10 11  1
 10 16  1
 11 12  1
 12 13  1
 12 14  1
 12 15  1
 16 17  1
 16 22  2
 17 18  1
 18 19  1
 18 20  1
 18 21  1
 22 23  1
 22 24  1
 24 25  2
 24 27  1
 25 26  1
 27 28  1
 27 29  1
 27 30  1
 30 31  1
 30 32  1
 32 33  2
 32 34  1
 34 35  2
 34 43  1
 35 36  1
 35 37  1
 37 38  1
 37 42  2
 38 39  1
 38 40  1
 38 41  1
 42 43  1
 43 44  1
 44 45  1
 44 46  1
 44 47  1
M  ZZC   1 h1
M  ZZC   2 c18
M  ZZC   3 h2
M  ZZC   4 c17
M  ZZC   5 h3
M  ZZC   6 c16
M  ZZC   7 h4
M  ZZC   8 h5
M  ZZC   9 c10
M  ZZC  10 c11
M  ZZC  11 o3
M  ZZC  12 c15
M  ZZC  13 h6
M  ZZC  14 h7
M  ZZC  15 h8
M  ZZC  16 c12
M  ZZC  17 o2
M  ZZC  18 c14
M  ZZC  19 h10
M  ZZC  20 h11
M  ZZC  21 h9
M  ZZC  22 c13
M  ZZC  23 h12
M  ZZC  24 c8
M  ZZC  25 c9
M  ZZC  26 h13
M  ZZC  27 c7
M  ZZC  28 h14
M  ZZC  29 h15
M  ZZC  30 n3
M  ZZC  31 h16
M  ZZC  32 c6
M  ZZC  33 o1
M  ZZC  34 c4
M  ZZC  35 c3
M  ZZC  36 h20
M  ZZC  37 c2
M  ZZC  38 c1
M  ZZC  39 h21
M  ZZC  40 h22
M  ZZC  41 h23
M  ZZC  42 n2
M  ZZC  43 n1
M  ZZC  44 c5
M  ZZC  45 h17
M  ZZC  46 h18
M  ZZC  47 h19
M  ZZM   1 5
M  ZZI   1 1
M  ZZM   2 2
M  ZZI   2 120
M  ZZM   3 5
M  ZZI   3 1
M  ZZM   4 2
M  ZZI   4 120
M  ZZM   5 5
M  ZZI   5 1
M  ZZM   6 1
M  ZZI   6 112
M  ZZM   7 5
M  ZZI   7 1
M  ZZM   8 5
M  ZZI   8 1
M  ZZM   9 37
M  ZZI   9 124
M  ZZM  10 37
M  ZZI  10 124
M  ZZM  11 6
M  ZZI  11 59
M  ZZM  12 1
M  ZZI  12 111
M  ZZM  13 5
M  ZZI  13 1
M  ZZM  14 5
M  ZZI  14 1
M  ZZM  15 5
M  ZZI  15 1
M  ZZM  16 37
M  ZZI  16 124
M  ZZM  17 6
M  ZZI  17 59
M  ZZM  18 1
M  ZZI  18 111
M  ZZM  19 5
M  ZZI  19 1
M  ZZM  20 5
M  ZZI  20 1
M  ZZM  21 5
M  ZZI  21 1
M  ZZM  22 37
M  ZZI  22 125
M  ZZM  23 5
M  ZZI  23 1
M  ZZM  24 37
M  ZZI  24 124
M  ZZM  25 37
M  ZZI  25 125
M  ZZM  26 5
M  ZZI  26 1
M  ZZM  27 1
M  ZZI  27 112
M  ZZM  28 5
M  ZZI  28 1
M  ZZM  29 5
M  ZZI  29 1
M  ZZM  30 10
M  ZZI  30 211
M  ZZM  31 28
M  ZZI  31 11
M  ZZM  32 3
M  ZZI  32 121
M  ZZM  33 7
M  ZZI  33 81
M  ZZM  34 63
M  ZZI  34 104
M  ZZM  35 64
M  ZZI  35 105
M  ZZM  36 5
M  ZZI  36 1
M  ZZM  37 64
M  ZZI  37 105
M  ZZM  38 1
M  ZZI  38 111
M  ZZM  39 5
M  ZZI  39 1
M  ZZM  40 5
M  ZZI  40 1
M  ZZM  41 5
M  ZZI  41 1
M  ZZM  42 65
M  ZZI  42 207
M  ZZM  43 39
M  ZZI  43 215
M  ZZM  44 1
M  ZZI  44 111
M  ZZM  45 5
M  ZZI  45 1
M  ZZM  46 5
M  ZZI  46 1
M  ZZM  47 5
M  ZZI  47 1
M  END
> <NAME>
Z960117062

> <Score>
-25.641418

> <Natom>
47

> <Nflex>
4

> <Hbond>
-3.102313

> <Hphob>
-7.492673

> <VwInt>
-27.585105

> <Eintl>
4.182006

> <Dsolv>
10.988935

> <SolEl>
6.319587

> <mfScore>
-89.66616

> <RecConf>
1

> <molLogP>
2.501107

$$$$
Z1139413310
  MOLSOFT 11211612053D

 47 49  0  0  1  0  0  0  0  0999 V2000
  -34.4093    3.1149   71.2579 N   0  0  0
  -34.6782    3.4411   70.1770 C   0  0  0
  -35.0008    3.8267   68.8374 C   0  0  0
  -34.4997    3.1040   67.7711 C   0  0  0
  -33.8622    2.2389   67.9331 H   0  0  0
  -34.8131    3.4827   66.4837 C   0  0  0
  -34.4251    2.9120   65.6467 H   0  0  0
  -35.6273    4.5734   66.2574 C   0  0  0
  -35.8772    4.8447   65.2374 H   0  0  0
  -36.1376    5.3110   67.3159 C   0  0  0
  -35.8177    4.9215   68.6104 C   0  0  0
  -36.2212    5.4738   69.4552 H   0  0  0
  -37.0994    6.4476   67.0816 C   0  0  0
  -38.0246    6.0040   66.7108 H   0  0  0
  -37.3691    6.9126   68.0328 H   0  0  0
  -36.6755    7.4586   66.1014 N   0  0  0
  -37.5232    7.9597   65.8301 H   0  0  0
  -35.7880    8.4769   66.6922 C   0  0  0
  -35.8360    9.3598   66.0449 H   0  0  0
  -36.2373    8.7983   67.6348 H   0  0  0
  -34.3005    8.0763   66.8907 C   0  0  1
  -34.2468    7.0460   67.2458 H   0  0  0
  -33.5042    8.0943   65.6138 C   0  0  0
  -32.1546    8.3534   65.4463 C   0  0  0
  -31.4909    8.5924   66.2661 H   0  0  0
  -31.7364    8.2794   64.0952 C   0  0  0
  -30.7265    8.4508   63.7500 H   0  0  0
  -32.7663    7.9435   63.2505 C   0  0  0
  -32.7292    7.8102   62.1798 H   0  0  0
  -34.2359    7.7056   64.0942 S   0  0  0
  -33.6270    8.9060   67.9288 N   0  0  0
  -33.8315   10.3618   67.7753 C   0  0  0
  -33.5249   10.6936   66.7783 H   0  0  0
  -34.8895   10.6191   67.8971 H   0  0  0
  -33.0160   11.1102   68.8294 C   0  0  1
  -31.9472   10.8979   68.7091 H   0  0  0
  -33.2375   12.6042   68.7032 C   0  0  0
  -32.6492   13.1411   69.4504 H   0  0  0
  -34.2841   12.8561   68.8878 H   0  0  0
  -32.9566   12.9609   67.7085 H   0  0  0
  -33.4227   10.7143   70.1481 O   0  0  0
  -33.2060    9.3093   70.3245 C   0  0  0
  -32.1327    9.0964   70.2577 H   0  0  0
  -33.5298    9.0474   71.3360 H   0  0  0
  -33.9966    8.5023   69.3006 C   0  0  0
  -33.7882    7.4397   69.4559 H   0  0  0
  -35.0663    8.6581   69.4748 H   0  0  0
  2  1  3
  2  3  1
  3  4  1
  3 11  2
  4  5  1
  4  6  2
  6  7  1
  6  8  1
  8  9  1
  8 10  2
 10 11  1
 10 13  1
 11 12  1
 13 14  1
 13 15  1
 13 16  1
 16 17  1
 16 18  1
 18 19  1
 18 20  1
 21 18  1
 21 22  1
 21 23  1
 21 31  1
 23 24  2
 23 30  1
 24 25  1
 24 26  1
 26 27  1
 26 28  2
 28 29  1
 28 30  1
 31 32  1
 31 45  1
 32 33  1
 32 34  1
 35 32  1
 35 36  1
 35 37  1
 35 41  1
 37 38  1
 37 39  1
 37 40  1
 41 42  1
 42 43  1
 42 44  1
 42 45  1
 45 46  1
 45 47  1
M  ZZC   1 n3
M  ZZC   2 c15
M  ZZC   3 c13
M  ZZC   4 c12
M  ZZC   5 h5
M  ZZC   6 c11
M  ZZC   7 h6
M  ZZC   8 c10
M  ZZC   9 h7
M  ZZC  10 c9
M  ZZC  11 c14
M  ZZC  12 h4
M  ZZC  13 c8
M  ZZC  14 h8
M  ZZC  15 h9
M  ZZC  16 n2
M  ZZC  17 h10
M  ZZC  18 c7
M  ZZC  19 h11
M  ZZC  20 h12
M  ZZC  21 c6
M  ZZC  22 h22
M  ZZC  23 c16
M  ZZC  24 c17
M  ZZC  25 h3
M  ZZC  26 c18
M  ZZC  27 h2
M  ZZC  28 c19
M  ZZC  29 h1
M  ZZC  30 s1
M  ZZC  31 n1
M  ZZC  32 c3
M  ZZC  33 h17
M  ZZC  34 h18
M  ZZC  35 c2
M  ZZC  36 h23
M  ZZC  37 c1
M  ZZC  38 h19
M  ZZC  39 h20
M  ZZC  40 h21
M  ZZC  41 o1
M  ZZC  42 c5
M  ZZC  43 h13
M  ZZC  44 h14
M  ZZC  45 c4
M  ZZC  46 h15
M  ZZC  47 h16
M  ZZM   1 42
M  ZZI   1 225
M  ZZM   2 4
M  ZZI   2 130
M  ZZM   3 37
M  ZZI   3 124
M  ZZM   4 37
M  ZZI   4 125
M  ZZM   5 5
M  ZZI   5 1
M  ZZM   6 37
M  ZZI   6 125
M  ZZM   7 5
M  ZZI   7 1
M  ZZM   8 37
M  ZZI   8 125
M  ZZM   9 5
M  ZZI   9 1
M  ZZM  10 37
M  ZZI  10 124
M  ZZM  11 37
M  ZZI  11 125
M  ZZM  12 5
M  ZZI  12 1
M  ZZM  13 1
M  ZZI  13 112
M  ZZM  14 5
M  ZZI  14 1
M  ZZM  15 5
M  ZZI  15 1
M  ZZM  16 8
M  ZZI  16 214
M  ZZM  17 23
M  ZZI  17 10
M  ZZM  18 1
M  ZZI  18 112
M  ZZM  19 5
M  ZZI  19 1
M  ZZM  20 5
M  ZZI  20 1
M  ZZM  21 1
M  ZZI  21 113
M  ZZM  22 5
M  ZZI  22 1
M  ZZM  23 63
M  ZZI  23 104
M  ZZM  24 64
M  ZZI  24 105
M  ZZM  25 5
M  ZZI  25 1
M  ZZM  26 64
M  ZZI  26 105
M  ZZM  27 5
M  ZZI  27 1
M  ZZM  28 63
M  ZZI  28 104
M  ZZM  29 5
M  ZZI  29 1
M  ZZM  30 44
M  ZZI  30 248
M  ZZM  31 8
M  ZZI  31 216
M  ZZM  32 1
M  ZZI  32 112
M  ZZM  33 5
M  ZZI  33 1
M  ZZM  34 5
M  ZZI  34 1
M  ZZM  35 1
M  ZZI  35 113
M  ZZM  36 5
M  ZZI  36 1
M  ZZM  37 1
M  ZZI  37 111
M  ZZM  38 5
M  ZZI  38 1
M  ZZM  39 5
M  ZZI  39 1
M  ZZM  40 5
M  ZZI  40 1
M  ZZM  41 6
M  ZZI  41 65
M  ZZM  42 1
M  ZZI  42 112
M  ZZM  43 5
M  ZZI  43 1
M  ZZM  44 5
M  ZZI  44 1
M  ZZM  45 1
M  ZZI  45 112
M  ZZM  46 5
M  ZZI  46 1
M  ZZM  47 5
M  ZZI  47 1
M  END
> <NAME>
Z1139413310

> <Score>
-25.574262

> <Natom>
47

> <Nflex>
7

> <Hbond>
-2.72771

> <Hphob>
-8.220312

> <VwInt>
-28.388486

> <Eintl>
9.451458

> <Dsolv>
9.220305

> <SolEl>
6.223803

> <mfScore>
-74.323754

> <RecConf>
1

> <molLogP>
2.1372

$$$$
Z119834480
  MOLSOFT 11211612053D

 47 49  0  0  0  0  0  0  0  0999 V2000
  -32.3711   11.7934   71.2024 F   0  0  0
  -32.4598   11.4350   69.9122 C   0  0  0
  -31.7510   10.3426   69.4611 C   0  0  0
  -31.1246    9.7859   70.1497 H   0  0  0
  -31.8391    9.9664   68.1338 C   0  0  0
  -31.2730    9.0997   67.8152 H   0  0  0
  -32.6482   10.6962   67.2644 C   0  0  0
  -33.3508   11.7902   67.7377 C   0  0  0
  -33.9856   12.3593   67.0680 H   0  0  0
  -33.2604   12.1629   69.0626 C   0  0  0
  -33.8107   13.0196   69.4338 H   0  0  0
  -32.8564   10.4036   65.9105 O   0  0  0
  -32.1231    9.2854   65.3765 C   0  0  0
  -32.0426    9.4537   64.2996 H   0  0  0
  -31.0946    9.2857   65.7470 H   0  0  0
  -32.7879    7.9290   65.6294 C   0  0  0
  -32.1186    7.1494   65.2659 H   0  0  0
  -32.9138    7.7554   66.6975 H   0  0  0
  -34.0614    7.7033   64.9388 N   0  0  0
  -34.0490    7.7449   63.4860 C   0  0  0
  -33.8715    8.7722   63.1669 H   0  0  0
  -35.0024    7.4140   63.0703 H   0  0  0
  -33.2494    7.1000   63.1103 H   0  0  0
  -35.2277    7.2874   65.5791 C   0  0  0
  -36.2420    6.9195   65.0060 O   0  0  0
  -35.2214    7.2512   67.0564 C   0  0  0
  -35.2293    8.4336   67.7802 C   0  0  0
  -35.2693    9.3918   67.2719 H   0  0  0
  -35.1526    8.3863   69.1576 C   0  0  0
  -35.1125    9.3069   69.7309 H   0  0  0
  -35.1279    7.1670   69.8062 C   0  0  0
  -35.0543    7.1408   70.8891 H   0  0  0
  -35.2297    5.9935   69.0701 C   0  0  0
  -35.2489    6.0219   67.6908 C   0  0  0
  -35.2848    5.0969   67.1221 H   0  0  0
  -35.2477    4.7464   69.6844 O   0  0  0
  -36.2577    4.5596   70.6297 C   0  0  0
  -37.4065    5.3388   70.6835 C   0  0  0
  -37.5964    6.1329   69.9707 H   0  0  0
  -38.3467    5.0980   71.6624 C   0  0  0
  -39.2294    5.7265   71.7272 H   0  0  0
  -38.1765    4.0506   72.5442 C   0  0  0
  -38.9347    3.8439   73.2906 H   0  0  0
  -37.0526    3.2546   72.4676 C   0  0  0
  -36.9276    2.4249   73.1562 H   0  0  0
  -36.0885    3.5122   71.5142 C   0  0  0
  -35.2032    2.8870   71.4565 H   0  0  0
  2  1  1
  2  3  2
  2 10  1
  3  4  1
  3  5  1
  5  6  1
  5  7  2
  7  8  1
  7 12  1
  8  9  1
  8 10  2
 10 11  1
 12 13  1
 13 14  1
 13 15  1
 13 16  1
 16 17  1
 16 18  1
 16 19  1
 19 20  1
 19 24  1
 20 21  1
 20 22  1
 20 23  1
 24 25  2
 24 26  1
 26 27  2
 26 34  1
 27 28  1
 27 29  1
 29 30  1
 29 31  2
 31 32  1
 31 33  1
 33 34  2
 33 36  1
 34 35  1
 36 37  1
 37 38  2
 37 46  1
 38 39  1
 38 40  1
 40 41  1
 40 42  2
 42 43  1
 42 44  1
 44 45  1
 44 46  2
 46 47  1
M  ZZC   1 f1
M  ZZC   2 c7
M  ZZC   3 c6
M  ZZC   4 h12
M  ZZC   5 c5
M  ZZC   6 h13
M  ZZC   7 c4
M  ZZC   8 c9
M  ZZC   9 h10
M  ZZC  10 c8
M  ZZC  11 h11
M  ZZC  12 o1
M  ZZC  13 c3
M  ZZC  14 h14
M  ZZC  15 h15
M  ZZC  16 c2
M  ZZC  17 h16
M  ZZC  18 h17
M  ZZC  19 n1
M  ZZC  20 c1
M  ZZC  21 h18
M  ZZC  22 h19
M  ZZC  23 h20
M  ZZC  24 c10
M  ZZC  25 o2
M  ZZC  26 c11
M  ZZC  27 c12
M  ZZC  28 h9
M  ZZC  29 c13
M  ZZC  30 h8
M  ZZC  31 c14
M  ZZC  32 h7
M  ZZC  33 c15
M  ZZC  34 c16
M  ZZC  35 h6
M  ZZC  36 o3
M  ZZC  37 c17
M  ZZC  38 c18
M  ZZC  39 h5
M  ZZC  40 c19
M  ZZC  41 h4
M  ZZC  42 c20
M  ZZC  43 h3
M  ZZC  44 c21
M  ZZC  45 h2
M  ZZC  46 c22
M  ZZC  47 h1
M  ZZM   1 11
M  ZZI   1 90
M  ZZM   2 37
M  ZZI   2 124
M  ZZM   3 37
M  ZZI   3 125
M  ZZM   4 5
M  ZZI   4 1
M  ZZM   5 37
M  ZZI   5 125
M  ZZM   6 5
M  ZZI   6 1
M  ZZM   7 37
M  ZZI   7 124
M  ZZM   8 37
M  ZZI   8 125
M  ZZM   9 5
M  ZZI   9 1
M  ZZM  10 37
M  ZZI  10 125
M  ZZM  11 5
M  ZZI  11 1
M  ZZM  12 6
M  ZZI  12 59
M  ZZM  13 1
M  ZZI  13 112
M  ZZM  14 5
M  ZZI  14 1
M  ZZM  15 5
M  ZZI  15 1
M  ZZM  16 1
M  ZZI  16 112
M  ZZM  17 5
M  ZZI  17 1
M  ZZM  18 5
M  ZZI  18 1
M  ZZM  19 10
M  ZZI  19 192
M  ZZM  20 1
M  ZZI  20 111
M  ZZM  21 5
M  ZZI  21 1
M  ZZM  22 5
M  ZZI  22 1
M  ZZM  23 5
M  ZZI  23 1
M  ZZM  24 3
M  ZZI  24 121
M  ZZM  25 7
M  ZZI  25 81
M  ZZM  26 37
M  ZZI  26 124
M  ZZM  27 37
M  ZZI  27 125
M  ZZM  28 5
M  ZZI  28 1
M  ZZM  29 37
M  ZZI  29 125
M  ZZM  30 5
M  ZZI  30 1
M  ZZM  31 37
M  ZZI  31 125
M  ZZM  32 5
M  ZZI  32 1
M  ZZM  33 37
M  ZZI  33 124
M  ZZM  34 37
M  ZZI  34 125
M  ZZM  35 5
M  ZZI  35 1
M  ZZM  36 6
M  ZZI  36 59
M  ZZM  37 37
M  ZZI  37 124
M  ZZM  38 37
M  ZZI  38 125
M  ZZM  39 5
M  ZZI  39 1
M  ZZM  40 37
M  ZZI  40 125
M  ZZM  41 5
M  ZZI  41 1
M  ZZM  42 37
M  ZZI  42 125
M  ZZM  43 5
M  ZZI  43 1
M  ZZM  44 37
M  ZZI  44 125
M  ZZM  45 5
M  ZZI  45 1
M  ZZM  46 37
M  ZZI  46 125
M  ZZM  47 5
M  ZZI  47 1
M  END
> <NAME>
Z119834480

> <Score>
-25.534979

> <Natom>
47

> <Nflex>
6

> <Hbond>
-2.982801

> <Hphob>
-7.046067

> <VwInt>
-28.057506

> <Eintl>
9.696675

> <Dsolv>
10.424648

> <SolEl>
5.108173

> <mfScore>
-85.226323

> <RecConf>
1

> <molLogP>
4.659746

$$$$
Z1462392069
  MOLSOFT 11211612053D

 47 50  0  0  1  0  0  0  0  0999 V2000
  -34.0103   12.8647   69.0683 H   0  0  0
  -33.4371   12.2252   69.6164 N   0  0  0
  -33.2993   12.2612   70.9889 C   0  0  0
  -33.8330   13.0174   71.5482 H   0  0  0
  -32.4507   11.2419   71.3156 C   0  0  0
  -32.0438   10.8720   72.2475 H   0  0  0
  -32.0966   10.6120   70.1277 N   0  0  0
  -31.1803    9.4841   70.0297 C   0  0  0
  -30.1781    9.8574   69.8034 H   0  0  0
  -31.5083    8.8013   69.2415 H   0  0  0
  -31.1634    8.9369   70.9767 H   0  0  0
  -32.6945   11.2386   69.0949 C   0  3  0
  -32.5568   10.9361   67.6202 C   0  0  2
  -31.5365   10.5659   67.4874 H   0  0  0
  -32.6901   12.1241   66.8405 O   0  0  0
  -32.0023   12.7421   67.1509 H   0  0  0
  -33.5492    9.9227   67.1239 C   0  0  0
  -34.9089   10.1490   67.2393 C   0  0  0
  -35.2729   11.0672   67.6876 H   0  0  0
  -35.8165    9.2100   66.7987 C   0  0  0
  -36.8772    9.4095   66.8930 H   0  0  0
  -35.4017    7.9992   66.2848 C   0  0  0
  -34.0394    7.7899   66.1387 C   0  0  0
  -33.6694    6.8781   65.6869 H   0  0  0
  -33.1223    8.7377   66.5474 C   0  0  0
  -32.0640    8.5306   66.4161 H   0  0  0
  -36.3765    7.0221   65.9743 N   0  0  0
  -37.3497    7.3182   66.0569 H   0  0  0
  -36.0740    5.5984   66.1440 C   0  0  0
  -36.8662    5.0180   65.6637 H   0  0  0
  -35.1520    5.3447   65.6138 H   0  0  0
  -36.0136    5.1899   67.5978 C   0  0  0
  -36.7125    5.8811   68.5830 C   0  0  0
  -37.3046    6.7518   68.3281 H   0  0  0
  -36.6810    5.4764   69.8997 C   0  0  0
  -37.2288    6.0325   70.6544 H   0  0  0
  -35.9684    4.3541   70.2530 C   0  0  0
  -35.9582    4.0380   71.2920 H   0  0  0
  -35.3061    3.6253   69.2807 C   0  0  0
  -35.3243    4.0356   67.9484 C   0  0  0
  -34.7108    3.3374   66.9814 N   0  0  0
  -34.0835    2.2204   67.3527 C   0  0  0
  -33.6042    1.6851   66.5445 H   0  0  0
  -34.0108    1.7432   68.6393 C   0  0  0
  -33.4836    0.8222   68.8607 H   0  0  0
  -34.6326    2.4643   69.6320 C   0  0  0
  -34.5999    2.1113   70.6586 H   0  0  0
  2  1  1
  2  3  1
  2 12  2
  3  4  1
  3  5  2
  5  6  1
  5  7  1
  7  8  1
  7 12  1
  8  9  1
  8 10  1
  8 11  1
 13 12  1
 13 14  1
 13 15  1
 13 17  1
 15 16  1
 17 18  1
 17 25  2
 18 19  1
 18 20  2
 20 21  1
 20 22  1
 22 23  2
 22 27  1
 23 24  1
 23 25  1
 25 26  1
 27 28  1
 27 29  1
 29 30  1
 29 31  1
 29 32  1
 32 33  2
 32 40  1
 33 34  1
 33 35  1
 35 36  1
 35 37  2
 37 38  1
 37 39  1
 39 40  2
 39 46  1
 40 41  1
 41 42  2
 42 43  1
 42 44  1
 44 45  1
 44 46  2
 46 47  1
M  ZZC   1 h1
M  ZZC   2 n2
M  ZZC   3 c3
M  ZZC   4 h16
M  ZZC   5 c2
M  ZZC   6 h17
M  ZZC   7 n1
M  ZZC   8 c1
M  ZZC   9 h18
M  ZZC  10 h19
M  ZZC  11 h20
M  ZZC  12 c4
M  ZZC  13 c5
M  ZZC  14 h21
M  ZZC  15 o1
M  ZZC  16 h2
M  ZZC  17 c6
M  ZZC  18 c11
M  ZZC  19 h12
M  ZZC  20 c10
M  ZZC  21 h13
M  ZZC  22 c9
M  ZZC  23 c8
M  ZZC  24 h14
M  ZZC  25 c7
M  ZZC  26 h15
M  ZZC  27 n3
M  ZZC  28 h11
M  ZZC  29 c12
M  ZZC  30 h10
M  ZZC  31 h9
M  ZZC  32 c13
M  ZZC  33 c14
M  ZZC  34 h8
M  ZZC  35 c15
M  ZZC  36 h7
M  ZZC  37 c16
M  ZZC  38 h6
M  ZZC  39 c17
M  ZZC  40 c18
M  ZZC  41 n4
M  ZZC  42 c19
M  ZZC  43 h5
M  ZZC  44 c20
M  ZZC  45 h4
M  ZZC  46 c21
M  ZZC  47 h3
M  ZZM   1 36
M  ZZI   1 17
M  ZZM   2 81
M  ZZI   2 233
M  ZZM   3 78
M  ZZI   3 106
M  ZZM   4 5
M  ZZI   4 1
M  ZZM   5 78
M  ZZI   5 106
M  ZZM   6 5
M  ZZI   6 1
M  ZZM   7 81
M  ZZI   7 233
M  ZZM   8 1
M  ZZI   8 111
M  ZZM   9 5
M  ZZI   9 1
M  ZZM  10 5
M  ZZI  10 1
M  ZZM  11 5
M  ZZI  11 1
M  ZZM  12 80
M  ZZI  12 107
M  ZZM  13 1
M  ZZI  13 113
M  ZZM  14 5
M  ZZI  14 1
M  ZZM  15 6
M  ZZI  15 60
M  ZZM  16 21
M  ZZI  16 20
M  ZZM  17 37
M  ZZI  17 124
M  ZZM  18 37
M  ZZI  18 125
M  ZZM  19 5
M  ZZI  19 1
M  ZZM  20 37
M  ZZI  20 125
M  ZZM  21 5
M  ZZI  21 1
M  ZZM  22 37
M  ZZI  22 124
M  ZZM  23 37
M  ZZI  23 125
M  ZZM  24 5
M  ZZI  24 1
M  ZZM  25 37
M  ZZI  25 125
M  ZZM  26 5
M  ZZI  26 1
M  ZZM  27 40
M  ZZI  27 194
M  ZZM  28 28
M  ZZI  28 11
M  ZZM  29 1
M  ZZI  29 112
M  ZZM  30 5
M  ZZI  30 1
M  ZZM  31 5
M  ZZI  31 1
M  ZZM  32 37
M  ZZI  32 124
M  ZZM  33 37
M  ZZI  33 125
M  ZZM  34 5
M  ZZI  34 1
M  ZZM  35 37
M  ZZI  35 125
M  ZZM  36 5
M  ZZI  36 1
M  ZZM  37 37
M  ZZI  37 125
M  ZZM  38 5
M  ZZI  38 1
M  ZZM  39 37
M  ZZI  39 124
M  ZZM  40 37
M  ZZI  40 124
M  ZZM  41 38
M  ZZI  41 223
M  ZZM  42 37
M  ZZI  42 125
M  ZZM  43 5
M  ZZI  43 1
M  ZZM  44 37
M  ZZI  44 125
M  ZZM  45 5
M  ZZI  45 1
M  ZZM  46 37
M  ZZI  46 125
M  ZZM  47 5
M  ZZI  47 1
M  CHG  1  12   1
M  END
> <NAME>
Z1462392069

> <Score>
-25.528026

> <Natom>
47

> <Nflex>
5

> <Hbond>
-5.339608

> <Hphob>
-7.469873

> <VwInt>
-27.210679

> <Eintl>
7.265064

> <Dsolv>
13.985017

> <SolEl>
10.163505

> <mfScore>
-79.680283

> <RecConf>
1

> <molLogP>
1.979615

$$$$
Z25333610
  MOLSOFT 11211612053D

 47 50  0  0  1  0  0  0  0  0999 V2000
  -36.3420    5.9664   64.9774 O   0  0  0
  -35.3795    6.1455   65.7103 C   0  0  0
  -35.2179    5.2155   66.8477 C   0  0  0
  -35.3181    5.6745   68.1498 C   0  0  0
  -35.5228    6.7185   68.3646 H   0  0  0
  -35.1860    4.7764   69.1901 C   0  0  0
  -35.2640    5.1238   70.2155 H   0  0  0
  -34.9666    3.4357   68.9340 C   0  0  0
  -34.8935    2.9778   67.6241 C   0  0  0
  -34.7491    1.9316   67.3827 H   0  0  0
  -35.0258    3.8705   66.5821 C   0  0  0
  -34.9781    3.5048   65.5628 H   0  0  0
  -34.8459    2.6179   70.0599 O   0  0  0
  -34.5227    1.2591   69.7483 C   0  0  0
  -35.3628    0.7632   69.2497 H   0  0  0
  -34.3395    0.7374   70.6907 H   0  0  0
  -33.6079    1.1931   69.1496 H   0  0  0
  -34.3465    7.2426   65.5170 C   0  0  1
  -33.4479    7.0289   66.0960 H   0  0  0
  -33.9610    7.3456   64.0459 C   0  0  0
  -33.2026    8.1207   63.9018 H   0  0  0
  -34.8171    7.6285   63.4256 H   0  0  0
  -33.5621    6.4019   63.6672 H   0  0  0
  -34.9815    8.4736   65.8947 O   0  0  0
  -34.2307    9.2585   66.7672 C   0  0  0
  -34.3702   10.6168   66.6031 C   0  0  0
  -34.9639   10.9752   65.7736 H   0  0  0
  -33.7603   11.5033   67.4682 C   0  0  0
  -33.8977   12.5712   67.3339 H   0  0  0
  -32.9815   11.0266   68.5037 C   0  0  0
  -32.8279    9.6578   68.6442 C   0  0  0
  -33.4391    8.7595   67.7895 C   0  0  0
  -33.3131    7.6972   67.9594 H   0  0  0
  -31.9949    9.1435   69.7497 C   0  0  0
  -31.7884    7.9425   69.8772 O   0  0  0
  -31.4056   10.1044   70.6950 C   0  0  0
  -30.6586    9.6296   71.7534 C   0  0  0
  -30.5026    8.5660   71.9084 H   0  0  0
  -30.1165   10.5321   72.6336 C   0  0  0
  -29.5531   10.1593   73.4702 H   0  0  0
  -30.2999   11.8866   72.4574 C   0  0  0
  -29.8612   12.5906   73.1578 H   0  0  0
  -31.0509   12.3468   71.3966 C   0  0  0
  -31.1929   13.4118   71.2741 H   0  0  0
  -31.6109   11.4575   70.4982 C   0  0  0
  -32.3967   11.9012   69.4272 N   0  0  0
  -32.4082   12.8981   69.2210 H   0  0  0
  2  1  2
  2  3  1
 18  2  1
  3  4  2
  3 11  1
  4  5  1
  4  6  1
  6  7  1
  6  8  2
  8  9  1
  8 13  1
  9 10  1
  9 11  2
 11 12  1
 13 14  1
 14 15  1
 14 16  1
 14 17  1
 18 19  1
 18 20  1
 18 24  1
 20 21  1
 20 22  1
 20 23  1
 24 25  1
 25 26  1
 25 32  2
 26 27  1
 26 28  2
 28 29  1
 28 30  1
 30 31  2
 30 46  1
 31 32  1
 31 34  1
 32 33  1
 34 35  2
 34 36  1
 36 37  1
 36 45  2
 37 38  1
 37 39  2
 39 40  1
 39 41  1
 41 42  1
 41 43  2
 43 44  1
 43 45  1
 45 46  1
 46 47  1
M  ZZC   1 o1
M  ZZC   2 c3
M  ZZC   3 c4
M  ZZC   4 c5
M  ZZC   5 h14
M  ZZC   6 c6
M  ZZC   7 h13
M  ZZC   8 c7
M  ZZC   9 c8
M  ZZC  10 h12
M  ZZC  11 c9
M  ZZC  12 h11
M  ZZC  13 o2
M  ZZC  14 c10
M  ZZC  15 h10
M  ZZC  16 h8
M  ZZC  17 h9
M  ZZC  18 c2
M  ZZC  19 h19
M  ZZC  20 c1
M  ZZC  21 h15
M  ZZC  22 h16
M  ZZC  23 h17
M  ZZC  24 o3
M  ZZC  25 c11
M  ZZC  26 c12
M  ZZC  27 h7
M  ZZC  28 c13
M  ZZC  29 h6
M  ZZC  30 c14
M  ZZC  31 c15
M  ZZC  32 c16
M  ZZC  33 h5
M  ZZC  34 c17
M  ZZC  35 o4
M  ZZC  36 c18
M  ZZC  37 c19
M  ZZC  38 h4
M  ZZC  39 c20
M  ZZC  40 h3
M  ZZC  41 c21
M  ZZC  42 h2
M  ZZC  43 c22
M  ZZC  44 h1
M  ZZC  45 c23
M  ZZC  46 n1
M  ZZC  47 h18
M  ZZM   1 7
M  ZZI   1 80
M  ZZM   2 3
M  ZZI   2 122
M  ZZM   3 37
M  ZZI   3 124
M  ZZM   4 37
M  ZZI   4 125
M  ZZM   5 5
M  ZZI   5 1
M  ZZM   6 37
M  ZZI   6 125
M  ZZM   7 5
M  ZZI   7 1
M  ZZM   8 37
M  ZZI   8 124
M  ZZM   9 37
M  ZZI   9 125
M  ZZM  10 5
M  ZZI  10 1
M  ZZM  11 37
M  ZZI  11 125
M  ZZM  12 5
M  ZZI  12 1
M  ZZM  13 6
M  ZZI  13 59
M  ZZM  14 1
M  ZZI  14 111
M  ZZM  15 5
M  ZZI  15 1
M  ZZM  16 5
M  ZZI  16 1
M  ZZM  17 5
M  ZZI  17 1
M  ZZM  18 1
M  ZZI  18 113
M  ZZM  19 5
M  ZZI  19 1
M  ZZM  20 1
M  ZZI  20 111
M  ZZM  21 5
M  ZZI  21 1
M  ZZM  22 5
M  ZZI  22 1
M  ZZM  23 5
M  ZZI  23 1
M  ZZM  24 6
M  ZZI  24 59
M  ZZM  25 37
M  ZZI  25 124
M  ZZM  26 37
M  ZZI  26 125
M  ZZM  27 5
M  ZZI  27 1
M  ZZM  28 37
M  ZZI  28 125
M  ZZM  29 5
M  ZZI  29 1
M  ZZM  30 37
M  ZZI  30 124
M  ZZM  31 37
M  ZZI  31 124
M  ZZM  32 37
M  ZZI  32 125
M  ZZM  33 5
M  ZZI  33 1
M  ZZM  34 3
M  ZZI  34 122
M  ZZM  35 7
M  ZZI  35 80
M  ZZM  36 37
M  ZZI  36 124
M  ZZM  37 37
M  ZZI  37 125
M  ZZM  38 5
M  ZZI  38 1
M  ZZM  39 37
M  ZZI  39 125
M  ZZM  40 5
M  ZZI  40 1
M  ZZM  41 37
M  ZZI  41 125
M  ZZM  42 5
M  ZZI  42 1
M  ZZM  43 37
M  ZZI  43 125
M  ZZM  44 5
M  ZZI  44 1
M  ZZM  45 37
M  ZZI  45 124
M  ZZM  46 40
M  ZZI  46 194
M  ZZM  47 28
M  ZZI  47 11
M  END
> <NAME>
Z25333610

> <Score>
-25.321526

> <Natom>
47

> <Nflex>
2

> <Hbond>
-3.119864

> <Hphob>
-7.34891

> <VwInt>
-26.235012

> <Eintl>
9.265205

> <Dsolv>
12.960313

> <SolEl>
4.257995

> <mfScore>
-100.847329

> <RecConf>
1

> <molLogP>
4.316423

$$$$
Z1028222624
  MOLSOFT 11211612053D

 47 49  0  0  1  0  0  0  0  0999 V2000
  -31.4624    8.5291   68.2629 H   0  0  0
  -32.3692    9.0596   68.5690 C   0  0  0
  -33.2006    8.3455   68.5852 H   0  0  0
  -32.2502    9.7901   69.8986 C   0  0  1
  -32.5883    9.1552   70.7252 H   0  0  0
  -30.8081   10.1637   70.1954 C   0  0  0
  -29.8576    9.7773   69.5338 O   0  0  0
  -30.6489   10.9242   71.3215 N   0  0  0
  -29.7185   11.2155   71.5945 H   0  0  0
  -31.4216   11.2180   71.9079 H   0  0  0
  -33.1596   11.0031   69.7147 C   0  0  0
  -34.1949   10.7080   69.9184 H   0  0  0
  -32.9266   11.8625   70.3504 H   0  0  0
  -33.0173   11.3447   68.2467 C   0  0  0
  -33.9289   11.7785   67.8220 H   0  0  0
  -32.1926   12.0410   68.0661 H   0  0  0
  -32.6985   10.0900   67.6070 N   0  0  0
  -32.7631    9.9590   66.2373 C   0  0  0
  -33.0226   10.9029   65.5120 O   0  0  0
  -32.5517    8.6909   65.7644 N   0  0  0
  -32.3414    7.9491   66.4173 H   0  0  0
  -32.7644    8.3341   64.3733 C   0  0  0
  -32.2536    9.0592   63.7312 H   0  0  0
  -32.2904    7.3592   64.2222 H   0  0  0
  -34.2513    8.2661   64.0286 C   0  0  0
  -34.6558    9.2794   63.9369 H   0  0  0
  -34.3863    7.7827   63.0561 H   0  0  0
  -35.0058    7.5360   65.0726 C   0  0  0
  -36.0127    7.9820   65.9004 C   0  0  0
  -36.5746    8.9003   66.0016 H   0  0  0
  -36.2652    7.0102   66.8143 O   0  0  0
  -35.4030    6.0060   66.4816 C   0  0  0
  -34.6712    6.2493   65.4138 N   0  0  0
  -35.3587    4.8586   67.3735 C   0  0  0
  -34.7689    3.6769   66.9527 C   0  0  0
  -34.3854    3.5821   65.9417 H   0  0  0
  -34.6534    2.6032   67.8097 C   0  0  0
  -34.1887    1.6884   67.4551 H   0  0  0
  -35.1196    2.6869   69.1092 C   0  0  0
  -35.0101    1.5035   70.0215 C   0  0  0
  -35.7156    0.7270   69.7120 H   0  0  0
  -35.2378    1.7808   71.0550 H   0  0  0
  -33.9933    1.0989   70.0037 H   0  0  0
  -35.7234    3.8604   69.5300 C   0  0  0
  -36.1092    3.9462   70.5416 H   0  0  0
  -35.8471    4.9338   68.6705 C   0  0  0
  -36.3174    5.8421   69.0358 H   0  0  0
  2  1  1
  2  3  1
  4  2  1
  2 17  1
  4  5  1
  4  6  1
  4 11  1
  6  7  2
  6  8  1
  8  9  1
  8 10  1
 11 12  1
 11 13  1
 11 14  1
 14 15  1
 14 16  1
 14 17  1
 17 18  1
 18 19  2
 18 20  1
 20 21  1
 20 22  1
 22 23  1
 22 24  1
 22 25  1
 25 26  1
 25 27  1
 25 28  1
 28 29  2
 28 33  1
 29 30  1
 29 31  1
 31 32  1
 32 33  2
 32 34  1
 34 35  2
 34 46  1
 35 36  1
 35 37  1
 37 38  1
 37 39  2
 39 40  1
 39 44  1
 40 41  1
 40 42  1
 40 43  1
 44 45  1
 44 46  2
 46 47  1
M  ZZC   1 h3
M  ZZC   2 c17
M  ZZC   3 h4
M  ZZC   4 c16
M  ZZC   5 h22
M  ZZC   6 c18
M  ZZC   7 o3
M  ZZC   8 n4
M  ZZC   9 h1
M  ZZC  10 h2
M  ZZC  11 c15
M  ZZC  12 h5
M  ZZC  13 h6
M  ZZC  14 c14
M  ZZC  15 h7
M  ZZC  16 h8
M  ZZC  17 n3
M  ZZC  18 c13
M  ZZC  19 o2
M  ZZC  20 n2
M  ZZC  21 h9
M  ZZC  22 c12
M  ZZC  23 h10
M  ZZC  24 h11
M  ZZC  25 c11
M  ZZC  26 h12
M  ZZC  27 h13
M  ZZC  28 c9
M  ZZC  29 c10
M  ZZC  30 h14
M  ZZC  31 o1
M  ZZC  32 c8
M  ZZC  33 n1
M  ZZC  34 c5
M  ZZC  35 c4
M  ZZC  36 h17
M  ZZC  37 c3
M  ZZC  38 h18
M  ZZC  39 c2
M  ZZC  40 c1
M  ZZC  41 h19
M  ZZC  42 h20
M  ZZC  43 h21
M  ZZC  44 c7
M  ZZC  45 h15
M  ZZC  46 c6
M  ZZC  47 h16
M  ZZM   1 5
M  ZZI   1 1
M  ZZM   2 1
M  ZZI   2 112
M  ZZM   3 5
M  ZZI   3 1
M  ZZM   4 1
M  ZZI   4 113
M  ZZM   5 5
M  ZZI   5 1
M  ZZM   6 3
M  ZZI   6 121
M  ZZM   7 7
M  ZZI   7 81
M  ZZM   8 10
M  ZZI   8 212
M  ZZM   9 28
M  ZZI   9 11
M  ZZM  10 28
M  ZZI  10 11
M  ZZM  11 1
M  ZZI  11 112
M  ZZM  12 5
M  ZZI  12 1
M  ZZM  13 5
M  ZZI  13 1
M  ZZM  14 1
M  ZZI  14 112
M  ZZM  15 5
M  ZZI  15 1
M  ZZM  16 5
M  ZZI  16 1
M  ZZM  17 10
M  ZZI  17 192
M  ZZM  18 3
M  ZZI  18 121
M  ZZM  19 7
M  ZZI  19 81
M  ZZM  20 10
M  ZZI  20 211
M  ZZM  21 28
M  ZZI  21 11
M  ZZM  22 1
M  ZZI  22 112
M  ZZM  23 5
M  ZZI  23 1
M  ZZM  24 5
M  ZZI  24 1
M  ZZM  25 1
M  ZZI  25 112
M  ZZM  26 5
M  ZZI  26 1
M  ZZM  27 5
M  ZZI  27 1
M  ZZM  28 64
M  ZZI  28 105
M  ZZM  29 63
M  ZZI  29 104
M  ZZM  30 5
M  ZZI  30 1
M  ZZM  31 59
M  ZZI  31 56
M  ZZM  32 63
M  ZZI  32 104
M  ZZM  33 66
M  ZZI  33 222
M  ZZM  34 37
M  ZZI  34 124
M  ZZM  35 37
M  ZZI  35 125
M  ZZM  36 5
M  ZZI  36 1
M  ZZM  37 37
M  ZZI  37 125
M  ZZM  38 5
M  ZZI  38 1
M  ZZM  39 37
M  ZZI  39 124
M  ZZM  40 1
M  ZZI  40 111
M  ZZM  41 5
M  ZZI  41 1
M  ZZM  42 5
M  ZZI  42 1
M  ZZM  43 5
M  ZZI  43 1
M  ZZM  44 37
M  ZZI  44 125
M  ZZM  45 5
M  ZZI  45 1
M  ZZM  46 37
M  ZZI  46 125
M  ZZM  47 5
M  ZZI  47 1
M  END
> <NAME>
Z1028222624

> <Score>
-25.307115

> <Natom>
47

> <Nflex>
6

> <Hbond>
-3.249805

> <Hphob>
-6.722502

> <VwInt>
-31.390819

> <Eintl>
5.546575

> <Dsolv>
13.27547

> <SolEl>
7.959369

> <mfScore>
-123.472488

> <RecConf>
1

> <molLogP>
1.511448

$$$$
Z55955971
  MOLSOFT 11211612053D

 47 49  0  0  1  0  0  0  0  0999 V2000
  -33.4751    9.6676   64.4904 H   0  0  0
  -33.4135    8.7654   64.9811 N   0  3  0
  -31.9595    8.5508   65.3125 C   0  0  0
  -31.8688    7.6404   65.9108 H   0  0  0
  -31.4004    8.4561   64.3764 H   0  0  0
  -31.5846    9.4127   65.8692 H   0  0  0
  -33.8712    7.7026   64.0135 C   0  0  0
  -33.1933    7.7056   63.1546 H   0  0  0
  -33.8400    6.7318   64.5144 H   0  0  0
  -34.8770    7.9422   63.6635 H   0  0  0
  -34.2809    8.8822   66.2407 C   0  0  1
  -34.1722    7.9263   66.7631 H   0  0  0
  -33.8300    9.9605   67.1727 C   0  0  0
  -33.7872   10.0451   68.5508 C   0  0  0
  -34.0835    9.2769   69.2519 H   0  0  0
  -33.2922   11.3331   68.8593 C   0  0  0
  -33.1177   11.7607   69.8365 H   0  0  0
  -33.0606   11.9538   67.6555 C   0  0  0
  -32.6772   12.9258   67.3854 H   0  0  0
  -33.3942   11.1333   66.6191 O   0  0  0
  -35.7687    9.1545   65.9004 C   0  0  0
  -35.8228    9.7677   64.9962 H   0  0  0
  -36.2171    9.7728   66.6851 H   0  0  0
  -36.6474    7.9837   65.7123 N   0  0  0
  -37.5794    8.3471   65.5008 H   0  0  0
  -36.7861    7.1817   66.9438 C   0  0  0
  -37.8384    6.9272   67.0999 H   0  0  0
  -36.4443    7.7484   67.8134 H   0  0  0
  -36.0394    5.8610   66.8342 C   0  0  0
  -35.6901    5.4102   65.7508 O   0  0  0
  -35.8473    5.2271   68.0640 N   0  0  0
  -35.1990    3.9965   68.2509 C   0  0  0
  -34.5796    3.2011   67.3067 C   0  0  0
  -34.5384    3.4698   66.2573 H   0  0  0
  -33.9852    2.0320   67.7436 C   0  0  0
  -33.4669    1.4023   67.0325 H   0  0  0
  -34.0322    1.6597   69.0763 C   0  0  0
  -33.5682    0.7319   69.3921 H   0  0  0
  -34.6666    2.4596   70.0065 C   0  0  0
  -34.7114    2.1687   71.0513 H   0  0  0
  -35.2407    3.6353   69.5668 C   0  0  0
  -35.9810    4.6302   70.3907 C   0  0  0
  -35.3663    5.0172   71.2104 H   0  0  0
  -36.8993    4.1948   70.7994 H   0  0  0
  -36.2931    5.7149   69.3645 C   0  0  0
  -37.3628    5.9502   69.3346 H   0  0  0
  -35.7520    6.6389   69.5984 H   0  0  0
  2  1  1
  2  3  1
  2  7  1
 11  2  1
  3  4  1
  3  5  1
  3  6  1
  7  8  1
  7  9  1
  7 10  1
 11 12  1
 11 13  1
 11 21  1
 13 14  2
 13 20  1
 14 15  1
 14 16  1
 16 17  1
 16 18  2
 18 19  1
 18 20  1
 21 22  1
 21 23  1
 21 24  1
 24 25  1
 24 26  1
 26 27  1
 26 28  1
 26 29  1
 29 30  2
 29 31  1
 31 32  1
 31 45  1
 32 33  1
 32 41  2
 33 34  1
 33 35  2
 35 36  1
 35 37  1
 37 38  1
 37 39  2
 39 40  1
 39 41  1
 41 42  1
 42 43  1
 42 44  1
 42 45  1
 45 46  1
 45 47  1
M  ZZC   1 h1
M  ZZC   2 n1
M  ZZC   3 c1
M  ZZC   4 h21
M  ZZC   5 h22
M  ZZC   6 h23
M  ZZC   7 c2
M  ZZC   8 h18
M  ZZC   9 h19
M  ZZC  10 h20
M  ZZC  11 c3
M  ZZC  12 h24
M  ZZC  13 c15
M  ZZC  14 c16
M  ZZC  15 h4
M  ZZC  16 c17
M  ZZC  17 h3
M  ZZC  18 c18
M  ZZC  19 h2
M  ZZC  20 o2
M  ZZC  21 c4
M  ZZC  22 h16
M  ZZC  23 h17
M  ZZC  24 n2
M  ZZC  25 h15
M  ZZC  26 c5
M  ZZC  27 h13
M  ZZC  28 h14
M  ZZC  29 c6
M  ZZC  30 o1
M  ZZC  31 n3
M  ZZC  32 c10
M  ZZC  33 c11
M  ZZC  34 h8
M  ZZC  35 c12
M  ZZC  36 h7
M  ZZC  37 c13
M  ZZC  38 h6
M  ZZC  39 c14
M  ZZC  40 h5
M  ZZC  41 c9
M  ZZC  42 c8
M  ZZC  43 h10
M  ZZC  44 h9
M  ZZC  45 c7
M  ZZC  46 h11
M  ZZC  47 h12
M  ZZM   1 36
M  ZZI   1 17
M  ZZM   2 34
M  ZZI   2 231
M  ZZM   3 1
M  ZZI   3 111
M  ZZM   4 5
M  ZZI   4 1
M  ZZM   5 5
M  ZZI   5 1
M  ZZM   6 5
M  ZZI   6 1
M  ZZM   7 1
M  ZZI   7 111
M  ZZM   8 5
M  ZZI   8 1
M  ZZM   9 5
M  ZZI   9 1
M  ZZM  10 5
M  ZZI  10 1
M  ZZM  11 1
M  ZZI  11 113
M  ZZM  12 5
M  ZZI  12 1
M  ZZM  13 63
M  ZZI  13 104
M  ZZM  14 64
M  ZZI  14 105
M  ZZM  15 5
M  ZZI  15 1
M  ZZM  16 64
M  ZZI  16 105
M  ZZM  17 5
M  ZZI  17 1
M  ZZM  18 63
M  ZZI  18 104
M  ZZM  19 5
M  ZZI  19 1
M  ZZM  20 59
M  ZZI  20 56
M  ZZM  21 1
M  ZZI  21 112
M  ZZM  22 5
M  ZZI  22 1
M  ZZM  23 5
M  ZZI  23 1
M  ZZM  24 8
M  ZZI  24 214
M  ZZM  25 23
M  ZZI  25 10
M  ZZM  26 1
M  ZZI  26 112
M  ZZM  27 5
M  ZZI  27 1
M  ZZM  28 5
M  ZZI  28 1
M  ZZM  29 3
M  ZZI  29 121
M  ZZM  30 7
M  ZZI  30 81
M  ZZM  31 10
M  ZZI  31 192
M  ZZM  32 37
M  ZZI  32 124
M  ZZM  33 37
M  ZZI  33 125
M  ZZM  34 5
M  ZZI  34 1
M  ZZM  35 37
M  ZZI  35 125
M  ZZM  36 5
M  ZZI  36 1
M  ZZM  37 37
M  ZZI  37 125
M  ZZM  38 5
M  ZZI  38 1
M  ZZM  39 37
M  ZZI  39 125
M  ZZM  40 5
M  ZZI  40 1
M  ZZM  41 37
M  ZZI  41 124
M  ZZM  42 1
M  ZZI  42 112
M  ZZM  43 5
M  ZZI  43 1
M  ZZM  44 5
M  ZZI  44 1
M  ZZM  45 1
M  ZZI  45 112
M  ZZM  46 5
M  ZZI  46 1
M  ZZM  47 5
M  ZZI  47 1
M  CHG  1   2   1
M  END
> <NAME>
Z55955971

> <Score>
-25.290338

> <Natom>
47

> <Nflex>
7

> <Hbond>
-4.348657

> <Hphob>
-7.657551

> <VwInt>
-29.558432

> <Eintl>
6.323904

> <Dsolv>
10.229151

> <SolEl>
12.922562

> <mfScore>
-79.412537

> <RecConf>
1

> <molLogP>
-0.231698

$$$$
Z27433992
  MOLSOFT 11211612053D

 47 50  0  0  0  0  0  0  0  0999 V2000
  -34.0610    1.4444   70.8429 O   0  0  0
  -34.5521    2.8063   70.8532 S   0  0  0
  -33.7585    3.8591   71.4613 O   0  0  0
  -36.0801    2.8420   71.3814 N   0  0  0
  -36.6440    2.0029   71.3332 H   0  0  0
  -36.6300    3.9552   71.8242 C   0  3  0
  -38.0394    4.0071   72.2144 C   0  0  0
  -38.1545    3.6958   73.2575 H   0  0  0
  -38.6707    3.3718   71.5937 H   0  0  0
  -38.3678    5.4746   72.0427 C   0  0  0
  -38.6597    5.6626   71.0039 H   0  0  0
  -39.1801    5.8229   72.6876 H   0  0  0
  -37.0449    6.1587   72.3214 C   0  0  0
  -36.8979    7.0490   71.7054 H   0  0  0
  -36.9200    6.4183   73.3716 H   0  0  0
  -36.0698    5.1372   71.9638 N   0  0  0
  -35.0672    5.2566   71.8348 H   0  0  0
  -34.7543    3.2877   69.1195 C   0  0  0
  -35.0778    4.6021   68.8148 C   0  0  0
  -35.1937    5.3445   69.5945 H   0  0  0
  -35.2678    4.9847   67.5020 C   0  0  0
  -35.0996    4.0506   66.4958 C   0  0  0
  -35.2361    4.3173   65.4567 H   0  0  0
  -34.7376    2.7547   66.8036 C   0  0  0
  -34.5939    2.0434   66.0014 H   0  0  0
  -34.5646    2.3561   68.1131 C   0  0  0
  -34.2890    1.3267   68.3237 H   0  0  0
  -35.6294    6.3309   67.2741 N   0  0  0
  -35.6957    6.9091   68.1038 H   0  0  0
  -35.9498    6.9158   66.0584 C   0  0  0
  -36.0443    6.3333   64.9899 O   0  0  0
  -36.3194    8.3850   66.1666 C   0  0  0
  -37.1835    8.4702   66.8252 H   0  0  0
  -36.6178    8.7444   65.1773 H   0  0  0
  -35.2488    9.2393   66.6813 N   0  0  0
  -34.5162   10.0120   65.7884 C   0  0  0
  -34.7065    9.7830   64.7258 H   0  0  0
  -33.6704   10.9415   66.1043 N   0  0  0
  -33.5757   11.1157   67.4340 C   0  0  0
  -34.1712   10.3804   68.4201 C   0  0  0
  -35.0548    9.3281   68.0487 C   0  0  0
  -35.5649    8.5922   68.8809 O   0  0  0
  -33.8118   10.7986   69.7318 C   0  0  0
  -34.1536   10.3372   70.6489 H   0  0  0
  -32.9874   11.8974   69.7048 C   0  0  0
  -32.5700   12.4402   70.5404 H   0  0  0
  -32.6502   12.3906   68.0971 S   0  0  0
  2  1  2
  2  3  2
  2  4  1
  2 18  1
  4  5  1
  4  6  1
  6  7  1
  6 16  1
  7  8  1
  7  9  1
  7 10  1
 10 11  1
 10 12  1
 10 13  1
 13 14  1
 13 15  1
 13 16  1
 16 17  1
 18 19  1
 18 26  2
 19 20  1
 19 21  2
 21 22  1
 21 28  1
 22 23  1
 22 24  2
 24 25  1
 24 26  1
 26 27  1
 28 29  1
 28 30  1
 30 31  2
 30 32  1
 32 33  1
 32 34  1
 32 35  1
 35 36  1
 35 41  1
 36 37  1
 36 38  2
 38 39  1
 39 40  2
 39 47  1
 40 41  1
 40 43  1
 41 42  2
 43 44  1
 43 45  2
 45 46  1
 45 47  1
M  ZZC   1 o1
M  ZZC   2 s1
M  ZZC   3 o2
M  ZZC   4 n1
M  ZZC   5 h14
M  ZZC   6 c7
M  ZZC   7 c10
M  ZZC   8 h8
M  ZZC   9 h9
M  ZZC  10 c9
M  ZZC  11 h10
M  ZZC  12 h11
M  ZZC  13 c8
M  ZZC  14 h12
M  ZZC  15 h13
M  ZZC  16 n2
M  ZZC  17 h1
M  ZZC  18 c5
M  ZZC  19 c4
M  ZZC  20 h16
M  ZZC  21 c3
M  ZZC  22 c2
M  ZZC  23 h17
M  ZZC  24 c1
M  ZZC  25 h18
M  ZZC  26 c6
M  ZZC  27 h15
M  ZZC  28 n3
M  ZZC  29 h7
M  ZZC  30 c11
M  ZZC  31 o3
M  ZZC  32 c12
M  ZZC  33 h5
M  ZZC  34 h6
M  ZZC  35 n4
M  ZZC  36 c13
M  ZZC  37 h4
M  ZZC  38 n5
M  ZZC  39 c14
M  ZZC  40 c15
M  ZZC  41 c16
M  ZZC  42 o4
M  ZZC  43 c17
M  ZZC  44 h3
M  ZZC  45 c18
M  ZZC  46 h2
M  ZZC  47 s2
M  ZZM   1 32
M  ZZI   1 73
M  ZZM   2 18
M  ZZI   2 250
M  ZZM   3 32
M  ZZI   3 73
M  ZZM   4 55
M  ZZI   4 203
M  ZZM   5 36
M  ZZI   5 17
M  ZZM   6 57
M  ZZI   6 103
M  ZZM   7 1
M  ZZI   7 112
M  ZZM   8 5
M  ZZI   8 1
M  ZZM   9 5
M  ZZI   9 1
M  ZZM  10 1
M  ZZI  10 112
M  ZZM  11 5
M  ZZI  11 1
M  ZZM  12 5
M  ZZI  12 1
M  ZZM  13 1
M  ZZI  13 112
M  ZZM  14 5
M  ZZI  14 1
M  ZZM  15 5
M  ZZI  15 1
M  ZZM  16 55
M  ZZI  16 203
M  ZZM  17 36
M  ZZI  17 17
M  ZZM  18 37
M  ZZI  18 124
M  ZZM  19 37
M  ZZI  19 125
M  ZZM  20 5
M  ZZI  20 1
M  ZZM  21 37
M  ZZI  21 124
M  ZZM  22 37
M  ZZI  22 125
M  ZZM  23 5
M  ZZI  23 1
M  ZZM  24 37
M  ZZI  24 125
M  ZZM  25 5
M  ZZI  25 1
M  ZZM  26 37
M  ZZI  26 125
M  ZZM  27 5
M  ZZI  27 1
M  ZZM  28 10
M  ZZI  28 191
M  ZZM  29 28
M  ZZI  29 11
M  ZZM  30 3
M  ZZI  30 121
M  ZZM  31 7
M  ZZI  31 81
M  ZZM  32 1
M  ZZI  32 112
M  ZZM  33 5
M  ZZI  33 1
M  ZZM  34 5
M  ZZI  34 1
M  ZZM  35 10
M  ZZI  35 192
M  ZZM  36 3
M  ZZI  36 121
M  ZZM  37 5
M  ZZI  37 1
M  ZZM  38 9
M  ZZI  38 220
M  ZZM  39 63
M  ZZI  39 104
M  ZZM  40 64
M  ZZI  40 105
M  ZZM  41 3
M  ZZI  41 121
M  ZZM  42 7
M  ZZI  42 81
M  ZZM  43 64
M  ZZI  43 105
M  ZZM  44 5
M  ZZI  44 1
M  ZZM  45 63
M  ZZI  45 104
M  ZZM  46 5
M  ZZI  46 1
M  ZZM  47 44
M  ZZI  47 248
M  CHG  1   6   1
M  END
> <NAME>
Z27433992

> <Score>
-25.051245

> <Natom>
47

> <Nflex>
4

> <Hbond>
-3.455167

> <Hphob>
-6.384995

> <VwInt>
-30.311843

> <Eintl>
8.547545

> <Dsolv>
10.699439

> <SolEl>
11.902328

> <mfScore>
-70.40176

> <RecConf>
1

> <molLogP>
0.808734

$$$$
Z13989704
  MOLSOFT 11211612053D

 48 51  0  0  0  0  0  0  0  0999 V2000
  -35.0547    8.5607   63.4706 H   0  0  0
  -34.3221    9.0532   64.1127 C   0  0  0
  -34.2312   10.1034   63.8250 H   0  0  0
  -32.9772    8.3671   63.9499 C   0  0  0
  -32.1400    8.2701   64.8337 O   0  0  0
  -32.7618    7.8854   62.6942 N   0  0  0
  -31.8863    7.4209   62.4899 H   0  0  0
  -33.4314    7.9724   61.9399 H   0  0  0
  -34.7152    8.9392   65.5065 N   0  0  0
  -34.2183    9.8997   66.3688 C   0  0  0
  -33.5931   10.8844   65.9978 O   0  0  0
  -34.5003    9.5922   67.7183 C   0  0  0
  -35.2136    8.5031   68.1010 C   0  0  0
  -35.7748    7.6371   67.1903 N   0  0  0
  -35.5476    7.8745   65.8450 C   0  0  0
  -36.0638    7.1729   64.9870 O   0  0  0
  -36.5912    6.4979   67.5969 C   0  0  0
  -37.3666    6.3275   66.8425 H   0  0  0
  -37.1246    6.7459   68.5188 H   0  0  0
  -35.8051    5.2227   67.7789 C   0  0  0
  -35.4494    4.4392   66.6883 C   0  0  0
  -35.7269    4.7371   65.6827 H   0  0  0
  -34.7497    3.2632   66.8606 C   0  0  0
  -34.4829    2.6609   65.9984 H   0  0  0
  -34.3977    2.8463   68.1262 C   0  0  0
  -33.8526    1.9171   68.2601 H   0  0  0
  -34.7397    3.6164   69.2178 C   0  0  0
  -34.4632    3.2914   70.2155 H   0  0  0
  -35.4314    4.7994   69.0463 C   0  0  0
  -35.6884    5.3927   69.9191 H   0  0  0
  -35.3071    8.4022   69.4594 N   0  0  0
  -34.6580    9.4559   69.9112 C   0  0  0
  -34.5282    9.7060   70.9561 H   0  0  0
  -34.1495   10.2171   68.8858 N   0  0  0
  -33.3660   11.4474   69.0335 C   0  0  0
  -34.0759   12.2609   69.2148 H   0  0  0
  -32.8458   11.6608   68.0961 H   0  0  0
  -32.3571   11.3257   70.1435 C   0  0  0
  -31.3704   10.3487   70.0991 C   0  0  0
  -31.3145    9.6586   69.2619 H   0  0  0
  -30.4542   10.2336   71.1222 C   0  0  0
  -29.7095    9.4465   71.0879 H   0  0  0
  -30.4875   11.1118   72.1847 C   0  0  0
  -29.7597   11.0261   72.9852 H   0  0  0
  -31.4539   12.0948   72.2316 C   0  0  0
  -31.4850   12.7851   73.0687 H   0  0  0
  -32.3897   12.1961   71.2227 C   0  0  0
  -33.1533   12.9651   71.2881 H   0  0  0
  2  1  1
  2  3  1
  2  4  1
  2  9  1
  4  5  2
  4  6  1
  6  7  1
  6  8  1
  9 10  1
  9 15  1
 10 11  2
 10 12  1
 12 13  2
 12 34  1
 13 14  1
 13 31  1
 14 15  1
 14 17  1
 15 16  2
 17 18  1
 17 19  1
 17 20  1
 20 21  1
 20 29  2
 21 22  1
 21 23  2
 23 24  1
 23 25  1
 25 26  1
 25 27  2
 27 28  1
 27 29  1
 29 30  1
 31 32  2
 32 33  1
 32 34  1
 34 35  1
 35 36  1
 35 37  1
 35 38  1
 38 39  1
 38 47  2
 39 40  1
 39 41  2
 41 42  1
 41 43  1
 43 44  1
 43 45  2
 45 46  1
 45 47  1
 47 48  1
M  ZZC   1 h3
M  ZZC   2 c20
M  ZZC   3 h4
M  ZZC   4 c21
M  ZZC   5 o3
M  ZZC   6 n5
M  ZZC   7 h1
M  ZZC   8 h2
M  ZZC   9 n3
M  ZZC  10 c11
M  ZZC  11 o1
M  ZZC  12 c10
M  ZZC  13 c9
M  ZZC  14 n4
M  ZZC  15 c12
M  ZZC  16 o2
M  ZZC  17 c13
M  ZZC  18 h10
M  ZZC  19 h11
M  ZZC  20 c14
M  ZZC  21 c15
M  ZZC  22 h9
M  ZZC  23 c16
M  ZZC  24 h8
M  ZZC  25 c17
M  ZZC  26 h7
M  ZZC  27 c18
M  ZZC  28 h6
M  ZZC  29 c19
M  ZZC  30 h5
M  ZZC  31 n2
M  ZZC  32 c8
M  ZZC  33 h12
M  ZZC  34 n1
M  ZZC  35 c7
M  ZZC  36 h13
M  ZZC  37 h14
M  ZZC  38 c4
M  ZZC  39 c3
M  ZZC  40 h17
M  ZZC  41 c2
M  ZZC  42 h18
M  ZZC  43 c1
M  ZZC  44 h19
M  ZZC  45 c6
M  ZZC  46 h15
M  ZZC  47 c5
M  ZZC  48 h16
M  ZZM   1 5
M  ZZI   1 1
M  ZZM   2 1
M  ZZI   2 112
M  ZZM   3 5
M  ZZI   3 1
M  ZZM   4 3
M  ZZI   4 121
M  ZZM   5 7
M  ZZI   5 81
M  ZZM   6 10
M  ZZI   6 212
M  ZZM   7 28
M  ZZI   7 11
M  ZZM   8 28
M  ZZI   8 11
M  ZZM   9 10
M  ZZI   9 192
M  ZZM  10 3
M  ZZI  10 121
M  ZZM  11 7
M  ZZI  11 81
M  ZZM  12 63
M  ZZI  12 104
M  ZZM  13 64
M  ZZI  13 105
M  ZZM  14 10
M  ZZI  14 192
M  ZZM  15 3
M  ZZI  15 121
M  ZZM  16 7
M  ZZI  16 81
M  ZZM  17 1
M  ZZI  17 112
M  ZZM  18 5
M  ZZI  18 1
M  ZZM  19 5
M  ZZI  19 1
M  ZZM  20 37
M  ZZI  20 124
M  ZZM  21 37
M  ZZI  21 125
M  ZZM  22 5
M  ZZI  22 1
M  ZZM  23 37
M  ZZI  23 125
M  ZZM  24 5
M  ZZI  24 1
M  ZZM  25 37
M  ZZI  25 125
M  ZZM  26 5
M  ZZI  26 1
M  ZZM  27 37
M  ZZI  27 125
M  ZZM  28 5
M  ZZI  28 1
M  ZZM  29 37
M  ZZI  29 125
M  ZZM  30 5
M  ZZI  30 1
M  ZZM  31 66
M  ZZI  31 222
M  ZZM  32 63
M  ZZI  32 104
M  ZZM  33 5
M  ZZI  33 6
M  ZZM  34 39
M  ZZI  34 215
M  ZZM  35 1
M  ZZI  35 112
M  ZZM  36 5
M  ZZI  36 1
M  ZZM  37 5
M  ZZI  37 1
M  ZZM  38 37
M  ZZI  38 124
M  ZZM  39 37
M  ZZI  39 125
M  ZZM  40 5
M  ZZI  40 1
M  ZZM  41 37
M  ZZI  41 125
M  ZZM  42 5
M  ZZI  42 1
M  ZZM  43 37
M  ZZI  43 125
M  ZZM  44 5
M  ZZI  44 1
M  ZZM  45 37
M  ZZI  45 125
M  ZZM  46 5
M  ZZI  46 1
M  ZZM  47 37
M  ZZI  47 125
M  ZZM  48 5
M  ZZI  48 1
M  END
> <NAME>
Z13989704

> <Score>
-38.283952

> <Natom>
48

> <Nflex>
6

> <Hbond>
-7.709708

> <Hphob>
-6.773289

> <VwInt>
-33.418237

> <Eintl>
6.189217

> <Dsolv>
16.321774

> <SolEl>
5.055483

> <mfScore>
-86.328928

> <RecConf>
1

> <molLogP>
1.701252

$$$$
Z1286138055
  MOLSOFT 11211612053D

 48 50  0  0  1  0  0  0  0  0999 V2000
  -33.3984    7.9051   71.4122 H   0  0  0
  -33.0924    8.6026   70.6434 C   0  0  0
  -31.8526    8.5764   70.0577 N   0  0  0
  -31.9082    9.5849   69.2168 C   0  0  0
  -31.1227    9.9136   68.5505 H   0  0  0
  -33.1453   10.1702   69.2876 N   0  0  0
  -33.9197    9.5551   70.1995 N   0  0  0
  -33.6969   11.2703   68.4975 C   0  0  1
  -34.5161   11.6934   69.0830 H   0  0  0
  -32.6964   12.3725   68.2156 C   0  0  0
  -33.1963   13.2145   67.7347 H   0  0  0
  -31.9176   12.0355   67.5287 H   0  0  0
  -32.2265   12.7299   69.1362 H   0  0  0
  -34.2678   10.7357   67.2050 C   0  0  0
  -33.8113   11.0373   66.1106 O   0  0  0
  -35.3440    9.8952   67.4132 N   0  0  0
  -35.6622    9.7330   68.3660 H   0  0  0
  -36.0337    9.2044   66.3361 C   0  0  0
  -35.9047    9.7720   65.4085 H   0  0  0
  -37.1013    9.2631   66.5690 H   0  0  0
  -35.6039    7.7281   66.1403 C   0  0  1
  -36.6083    7.1381   65.3059 O   0  0  0
  -37.4634    7.2709   65.7602 H   0  0  0
  -34.2653    7.7230   65.4096 C   0  0  0
  -33.0575    7.8480   66.0898 C   0  0  0
  -33.0316    7.8590   67.1726 H   0  0  0
  -31.8656    8.0019   65.4144 C   0  0  0
  -30.9424    8.1341   65.9695 H   0  0  0
  -31.8427    7.9905   64.0386 C   0  0  0
  -30.9051    8.1039   63.5031 H   0  0  0
  -33.0185    7.8199   63.3448 C   0  0  0
  -33.0021    7.7933   62.2604 H   0  0  0
  -34.2146    7.6952   64.0195 C   0  0  0
  -35.1230    7.5969   63.4356 H   0  0  0
  -35.6368    6.9720   67.4962 C   0  0  0
  -36.6531    7.0419   67.9004 H   0  0  0
  -34.9843    7.4745   68.2161 H   0  0  0
  -35.2820    5.4995   67.5430 C   0  0  0
  -35.1798    4.6823   66.4230 C   0  0  0
  -35.3382    5.0751   65.4262 H   0  0  0
  -34.8691    3.3434   66.5472 C   0  0  0
  -34.7830    2.7242   65.6613 H   0  0  0
  -34.6725    2.7843   67.7902 C   0  0  0
  -34.4327    1.7299   67.8827 H   0  0  0
  -34.7935    3.5718   68.9127 C   0  0  0
  -34.6511    3.1361   69.8963 H   0  0  0
  -35.0967    4.9126   68.7880 C   0  0  0
  -35.1904    5.5112   69.6890 H   0  0  0
  2  1  1
  2  3  1
  2  7  2
  3  4  2
  4  5  1
  4  6  1
  6  7  1
  8  6  1
  8  9  1
  8 10  1
  8 14  1
 10 11  1
 10 12  1
 10 13  1
 14 15  2
 14 16  1
 16 17  1
 16 18  1
 18 19  1
 18 20  1
 21 18  1
 21 22  1
 21 24  1
 21 35  1
 22 23  1
 24 25  2
 24 33  1
 25 26  1
 25 27  1
 27 28  1
 27 29  2
 29 30  1
 29 31  1
 31 32  1
 31 33  2
 33 34  1
 35 36  1
 35 37  1
 35 38  1
 38 39  1
 38 47  2
 39 40  1
 39 41  2
 41 42  1
 41 43  1
 43 44  1
 43 45  2
 45 46  1
 45 47  1
 47 48  1
M  ZZC   1 h1
M  ZZC   2 c20
M  ZZC   3 n3
M  ZZC   4 c19
M  ZZC   5 h2
M  ZZC   6 n2
M  ZZC   7 n4
M  ZZC   8 c2
M  ZZC   9 h22
M  ZZC  10 c1
M  ZZC  11 h19
M  ZZC  12 h20
M  ZZC  13 h21
M  ZZC  14 c3
M  ZZC  15 o1
M  ZZC  16 n1
M  ZZC  17 h18
M  ZZC  18 c4
M  ZZC  19 h16
M  ZZC  20 h17
M  ZZC  21 c5
M  ZZC  22 o2
M  ZZC  23 h3
M  ZZC  24 c13
M  ZZC  25 c14
M  ZZC  26 h8
M  ZZC  27 c15
M  ZZC  28 h7
M  ZZC  29 c16
M  ZZC  30 h6
M  ZZC  31 c17
M  ZZC  32 h5
M  ZZC  33 c18
M  ZZC  34 h4
M  ZZC  35 c6
M  ZZC  36 h14
M  ZZC  37 h15
M  ZZC  38 c7
M  ZZC  39 c12
M  ZZC  40 h9
M  ZZC  41 c11
M  ZZC  42 h10
M  ZZC  43 c10
M  ZZC  44 h11
M  ZZC  45 c9
M  ZZC  46 h12
M  ZZC  47 c8
M  ZZC  48 h13
M  ZZM   1 5
M  ZZI   1 1
M  ZZM   2 64
M  ZZI   2 105
M  ZZM   3 66
M  ZZI   3 222
M  ZZM   4 63
M  ZZI   4 104
M  ZZM   5 5
M  ZZI   5 6
M  ZZM   6 39
M  ZZI   6 215
M  ZZM   7 65
M  ZZI   7 207
M  ZZM   8 1
M  ZZI   8 113
M  ZZM   9 5
M  ZZI   9 1
M  ZZM  10 1
M  ZZI  10 111
M  ZZM  11 5
M  ZZI  11 1
M  ZZM  12 5
M  ZZI  12 1
M  ZZM  13 5
M  ZZI  13 1
M  ZZM  14 3
M  ZZI  14 121
M  ZZM  15 7
M  ZZI  15 81
M  ZZM  16 10
M  ZZI  16 211
M  ZZM  17 28
M  ZZI  17 11
M  ZZM  18 1
M  ZZI  18 112
M  ZZM  19 5
M  ZZI  19 1
M  ZZM  20 5
M  ZZI  20 1
M  ZZM  21 1
M  ZZI  21 110
M  ZZM  22 6
M  ZZI  22 60
M  ZZM  23 21
M  ZZI  23 20
M  ZZM  24 37
M  ZZI  24 124
M  ZZM  25 37
M  ZZI  25 125
M  ZZM  26 5
M  ZZI  26 1
M  ZZM  27 37
M  ZZI  27 125
M  ZZM  28 5
M  ZZI  28 1
M  ZZM  29 37
M  ZZI  29 125
M  ZZM  30 5
M  ZZI  30 1
M  ZZM  31 37
M  ZZI  31 125
M  ZZM  32 5
M  ZZI  32 1
M  ZZM  33 37
M  ZZI  33 125
M  ZZM  34 5
M  ZZI  34 1
M  ZZM  35 1
M  ZZI  35 112
M  ZZM  36 5
M  ZZI  36 1
M  ZZM  37 5
M  ZZI  37 1
M  ZZM  38 37
M  ZZI  38 124
M  ZZM  39 37
M  ZZI  39 125
M  ZZM  40 5
M  ZZI  40 1
M  ZZM  41 37
M  ZZI  41 125
M  ZZM  42 5
M  ZZI  42 1
M  ZZM  43 37
M  ZZI  43 125
M  ZZM  44 5
M  ZZI  44 1
M  ZZM  45 37
M  ZZI  45 125
M  ZZM  46 5
M  ZZI  46 1
M  ZZM  47 37
M  ZZI  47 125
M  ZZM  48 5
M  ZZI  48 1
M  END
> <NAME>
Z1286138055

> <Score>
-30.609729

> <Natom>
48

> <Nflex>
8

> <Hbond>
-5.667242

> <Hphob>
-7.057788

> <VwInt>
-30.368288

> <Eintl>
6.28538

> <Dsolv>
15.0718

> <SolEl>
4.123559

> <mfScore>
-92.979285

> <RecConf>
1

> <molLogP>
1.765797

$$$$
Z1486156824
  MOLSOFT 11211612053D

 48 51  0  0  1  0  0  0  0  0999 V2000
  -36.3975    6.1370   65.4121 O   0  0  0
  -35.9805    6.6784   66.4298 C   0  0  0
  -35.6271    5.8928   67.6071 C   0  0  0
  -35.5949    6.3248   68.9634 C   0  0  0
  -35.8159    7.3146   69.3364 H   0  0  0
  -35.2348    5.2603   69.7594 C   0  0  0
  -35.0686    5.2001   71.2325 C   0  0  0
  -34.1754    4.6351   71.5148 H   0  0  0
  -35.9407    4.7348   71.7010 H   0  0  0
  -34.9608    6.2060   71.6489 H   0  0  0
  -35.0447    4.1868   68.9214 N   0  0  0
  -35.2337    4.5586   67.6077 C   0  0  0
  -34.9990    3.6313   66.4699 C   0  0  0
  -34.6177    4.1742   65.6054 H   0  0  0
  -35.9287    3.1464   66.1711 H   0  0  0
  -34.2659    2.8550   66.7033 H   0  0  0
  -34.5470    2.8634   69.3679 C   0  0  0
  -33.4686    2.8395   69.3871 H   0  0  0
  -35.1971    1.5523   69.0072 C   0  0  0
  -34.5443    0.7230   68.7693 H   0  0  0
  -36.1184    1.5599   68.4460 H   0  0  0
  -35.2441    2.0346   70.4211 C   0  0  0
  -36.2034    2.3625   70.8022 H   0  0  0
  -34.6297    1.5224   71.1509 H   0  0  0
  -35.8117    8.1916   66.4816 C   0  0  0
  -36.3572    8.6436   65.6463 H   0  0  0
  -36.2675    8.5839   67.3944 H   0  0  0
  -34.3853    8.5471   66.4123 N   0  0  0
  -33.5256    8.3432   65.3242 C   0  0  0
  -33.8489    7.9203   64.0513 C   0  0  0
  -34.8682    7.6789   63.7745 H   0  0  0
  -32.8400    7.8498   63.1110 C   0  0  0
  -33.0727    7.5394   62.0999 H   0  0  0
  -31.5348    8.1701   63.4420 C   0  0  0
  -30.7537    8.1065   62.6925 H   0  0  0
  -31.2146    8.5472   64.7289 C   0  0  0
  -30.1899    8.7731   65.0061 H   0  0  0
  -32.2372    8.6451   65.6446 C   0  0  0
  -32.1363    9.0461   67.0751 C   0  0  0
  -31.5070    9.9307   67.2167 H   0  0  0
  -31.7283    8.2161   67.6596 H   0  0  0
  -33.6092    9.2926   67.4237 C   0  0  2
  -33.8332    8.9515   68.4408 H   0  0  0
  -33.8979   10.7932   67.3152 C   0  0  0
  -33.4176   11.5246   66.4601 O   0  0  0
  -34.7661   11.2595   68.2646 N   0  0  0
  -35.0151   12.2428   68.2672 H   0  0  0
  -35.2118   10.6617   68.9497 H   0  0  0
  2  1  2
  2  3  1
  2 25  1
  3  4  1
  3 12  2
  4  5  1
  4  6  2
  6  7  1
  6 11  1
  7  8  1
  7  9  1
  7 10  1
 11 12  1
 11 17  1
 12 13  1
 13 14  1
 13 15  1
 13 16  1
 17 18  1
 17 19  1
 17 22  1
 19 20  1
 19 21  1
 19 22  1
 22 23  1
 22 24  1
 25 26  1
 25 27  1
 25 28  1
 28 29  1
 42 28  1
 29 30  2
 29 38  1
 30 31  1
 30 32  1
 32 33  1
 32 34  2
 34 35  1
 34 36  1
 36 37  1
 36 38  2
 38 39  1
 39 40  1
 39 41  1
 42 39  1
 42 43  1
 42 44  1
 44 45  2
 44 46  1
 46 47  1
 46 48  1
M  ZZC   1 o1
M  ZZC   2 c10
M  ZZC   3 c4
M  ZZC   4 c3
M  ZZC   5 h19
M  ZZC   6 c2
M  ZZC   7 c1
M  ZZC   8 h20
M  ZZC   9 h21
M  ZZC  10 h22
M  ZZC  11 n1
M  ZZC  12 c5
M  ZZC  13 c9
M  ZZC  14 h11
M  ZZC  15 h12
M  ZZC  16 h13
M  ZZC  17 c6
M  ZZC  18 h18
M  ZZC  19 c7
M  ZZC  20 h16
M  ZZC  21 h17
M  ZZC  22 c8
M  ZZC  23 h14
M  ZZC  24 h15
M  ZZC  25 c11
M  ZZC  26 h10
M  ZZC  27 h9
M  ZZC  28 n2
M  ZZC  29 c12
M  ZZC  30 c13
M  ZZC  31 h8
M  ZZC  32 c14
M  ZZC  33 h7
M  ZZC  34 c15
M  ZZC  35 h6
M  ZZC  36 c16
M  ZZC  37 h5
M  ZZC  38 c17
M  ZZC  39 c18
M  ZZC  40 h3
M  ZZC  41 h4
M  ZZC  42 c19
M  ZZC  43 h23
M  ZZC  44 c20
M  ZZC  45 o2
M  ZZC  46 n3
M  ZZC  47 h1
M  ZZC  48 h2
M  ZZM   1 7
M  ZZI   1 80
M  ZZM   2 3
M  ZZI   2 122
M  ZZM   3 64
M  ZZI   3 105
M  ZZM   4 64
M  ZZI   4 105
M  ZZM   5 5
M  ZZI   5 1
M  ZZM   6 63
M  ZZI   6 104
M  ZZM   7 1
M  ZZI   7 111
M  ZZM   8 5
M  ZZI   8 1
M  ZZM   9 5
M  ZZI   9 1
M  ZZM  10 5
M  ZZI  10 1
M  ZZM  11 39
M  ZZI  11 215
M  ZZM  12 63
M  ZZI  12 104
M  ZZM  13 1
M  ZZI  13 111
M  ZZM  14 5
M  ZZI  14 1
M  ZZM  15 5
M  ZZI  15 1
M  ZZM  16 5
M  ZZI  16 1
M  ZZM  17 22
M  ZZI  17 109
M  ZZM  18 5
M  ZZI  18 1
M  ZZM  19 22
M  ZZI  19 109
M  ZZM  20 5
M  ZZI  20 1
M  ZZM  21 5
M  ZZI  21 1
M  ZZM  22 22
M  ZZI  22 109
M  ZZM  23 5
M  ZZI  23 1
M  ZZM  24 5
M  ZZI  24 1
M  ZZM  25 1
M  ZZI  25 112
M  ZZM  26 5
M  ZZI  26 1
M  ZZM  27 5
M  ZZI  27 1
M  ZZM  28 40
M  ZZI  28 193
M  ZZM  29 37
M  ZZI  29 124
M  ZZM  30 37
M  ZZI  30 125
M  ZZM  31 5
M  ZZI  31 1
M  ZZM  32 37
M  ZZI  32 125
M  ZZM  33 5
M  ZZI  33 1
M  ZZM  34 37
M  ZZI  34 125
M  ZZM  35 5
M  ZZI  35 1
M  ZZM  36 37
M  ZZI  36 125
M  ZZM  37 5
M  ZZI  37 1
M  ZZM  38 37
M  ZZI  38 124
M  ZZM  39 1
M  ZZI  39 112
M  ZZM  40 5
M  ZZI  40 1
M  ZZM  41 5
M  ZZI  41 1
M  ZZM  42 1
M  ZZI  42 113
M  ZZM  43 5
M  ZZI  43 1
M  ZZM  44 3
M  ZZI  44 121
M  ZZM  45 7
M  ZZI  45 81
M  ZZM  46 10
M  ZZI  46 212
M  ZZM  47 28
M  ZZI  47 11
M  ZZM  48 28
M  ZZI  48 11
M  END
> <NAME>
Z1486156824

> <Score>
-30.597595

> <Natom>
48

> <Nflex>
4

> <Hbond>
-5.655788

> <Hphob>
-6.940667

> <VwInt>
-25.748923

> <Eintl>
3.332036

> <Dsolv>
11.544626

> <SolEl>
4.624622

> <mfScore>
-102.191532

> <RecConf>
1

> <molLogP>
1.949648

$$$$
Z82191845
  MOLSOFT 11211612053D

 48 50  0  0  0  0  0  0  0  0999 V2000
  -33.5302   11.8272   73.3190 H   0  0  0
  -32.9848   10.9762   72.9028 C   0  0  0
  -31.9434   11.0129   73.2368 H   0  0  0
  -33.4464   10.0627   73.2883 H   0  0  0
  -33.0587   11.0129   71.4097 C   0  0  0
  -32.8672   12.2228   70.7425 C   0  0  0
  -32.6896   13.1193   71.3254 H   0  0  0
  -32.9022   12.3112   69.3600 C   0  0  0
  -32.7533   13.2537   68.8430 H   0  0  0
  -33.1243   11.1369   68.6789 C   0  0  0
  -33.2042   10.8816   67.2443 C   0  0  0
  -33.0443   11.7272   66.3793 O   0  0  0
  -33.4780    9.5425   67.1046 N   0  0  0
  -33.5146    8.9144   68.3275 C   0  0  0
  -33.6856    7.7378   68.6045 O   0  0  0
  -33.3046    9.9559   69.3239 C   0  0  0
  -33.2785    9.8436   70.6942 C   0  0  0
  -33.4235    8.8844   71.1834 H   0  0  0
  -33.6907    8.8898   65.8253 C   0  0  0
  -32.9250    9.2584   65.1344 H   0  0  0
  -33.5498    7.8106   65.9438 H   0  0  0
  -35.0719    9.2087   65.2478 C   0  0  0
  -35.1781   10.2910   65.1339 H   0  0  0
  -35.1295    8.7831   64.2412 H   0  0  0
  -36.2362    8.6922   66.0980 C   0  0  0
  -37.1885    9.0166   65.6659 H   0  0  0
  -36.1969    9.0971   67.1135 H   0  0  0
  -36.2327    7.1810   66.1170 C   0  0  0
  -36.3083    6.5512   65.0738 O   0  0  0
  -36.1109    6.6489   67.3863 N   0  0  0
  -36.2175    7.2718   68.1759 H   0  0  0
  -35.7537    5.3090   67.6817 C   0  0  0
  -35.3397    4.4335   66.6873 C   0  0  0
  -35.3273    4.7251   65.6451 H   0  0  0
  -34.8882    3.1713   67.0021 C   0  0  0
  -34.5641    2.5079   66.2062 H   0  0  0
  -34.8310    2.7598   68.3194 C   0  0  0
  -34.3527    1.3841   68.6639 C   0  0  0
  -35.1924    0.6865   68.6235 H   0  0  0
  -33.9226    1.3600   69.6695 H   0  0  0
  -33.5740    1.0565   67.9684 H   0  0  0
  -35.2855    3.6113   69.3098 C   0  0  0
  -35.2730    3.2734   70.3419 H   0  0  0
  -35.7554    4.8819   69.0106 C   0  0  0
  -36.2476    5.7556   70.1305 C   0  0  0
  -37.2583    6.1187   69.9187 H   0  0  0
  -35.5749    6.6044   70.2864 H   0  0  0
  -36.2998    5.1986   71.0705 H   0  0  0
  2  1  1
  2  3  1
  2  4  1
  2  5  1
  5  6  2
  5 17  1
  6  7  1
  6  8  1
  8  9  1
  8 10  2
 10 11  1
 10 16  1
 11 12  2
 11 13  1
 13 14  1
 13 19  1
 14 15  2
 14 16  1
 16 17  2
 17 18  1
 19 20  1
 19 21  1
 19 22  1
 22 23  1
 22 24  1
 22 25  1
 25 26  1
 25 27  1
 25 28  1
 28 29  2
 28 30  1
 30 31  1
 30 32  1
 32 33  2
 32 44  1
 33 34  1
 33 35  1
 35 36  1
 35 37  2
 37 38  1
 37 42  1
 38 39  1
 38 40  1
 38 41  1
 42 43  1
 42 44  2
 44 45  1
 45 46  1
 45 47  1
 45 48  1
M  ZZC   1 h1
M  ZZC   2 c21
M  ZZC   3 h2
M  ZZC   4 h3
M  ZZC   5 c17
M  ZZC   6 c16
M  ZZC   7 h5
M  ZZC   8 c15
M  ZZC   9 h6
M  ZZC  10 c14
M  ZZC  11 c13
M  ZZC  12 o2
M  ZZC  13 n2
M  ZZC  14 c20
M  ZZC  15 o3
M  ZZC  16 c19
M  ZZC  17 c18
M  ZZC  18 h4
M  ZZC  19 c12
M  ZZC  20 h7
M  ZZC  21 h8
M  ZZC  22 c11
M  ZZC  23 h10
M  ZZC  24 h9
M  ZZC  25 c10
M  ZZC  26 h11
M  ZZC  27 h12
M  ZZC  28 c9
M  ZZC  29 o1
M  ZZC  30 n1
M  ZZC  31 h13
M  ZZC  32 c5
M  ZZC  33 c4
M  ZZC  34 h18
M  ZZC  35 c3
M  ZZC  36 h19
M  ZZC  37 c2
M  ZZC  38 c1
M  ZZC  39 h20
M  ZZC  40 h21
M  ZZC  41 h22
M  ZZC  42 c7
M  ZZC  43 h17
M  ZZC  44 c6
M  ZZC  45 c8
M  ZZC  46 h14
M  ZZC  47 h15
M  ZZC  48 h16
M  ZZM   1 5
M  ZZI   1 1
M  ZZM   2 1
M  ZZI   2 111
M  ZZM   3 5
M  ZZI   3 1
M  ZZM   4 5
M  ZZI   4 1
M  ZZM   5 37
M  ZZI   5 124
M  ZZM   6 37
M  ZZI   6 125
M  ZZM   7 5
M  ZZI   7 1
M  ZZM   8 37
M  ZZI   8 125
M  ZZM   9 5
M  ZZI   9 1
M  ZZM  10 37
M  ZZI  10 124
M  ZZM  11 3
M  ZZI  11 121
M  ZZM  12 7
M  ZZI  12 81
M  ZZM  13 10
M  ZZI  13 192
M  ZZM  14 3
M  ZZI  14 121
M  ZZM  15 7
M  ZZI  15 81
M  ZZM  16 37
M  ZZI  16 124
M  ZZM  17 37
M  ZZI  17 125
M  ZZM  18 5
M  ZZI  18 1
M  ZZM  19 1
M  ZZI  19 112
M  ZZM  20 5
M  ZZI  20 1
M  ZZM  21 5
M  ZZI  21 1
M  ZZM  22 1
M  ZZI  22 112
M  ZZM  23 5
M  ZZI  23 1
M  ZZM  24 5
M  ZZI  24 1
M  ZZM  25 1
M  ZZI  25 112
M  ZZM  26 5
M  ZZI  26 1
M  ZZM  27 5
M  ZZI  27 1
M  ZZM  28 3
M  ZZI  28 121
M  ZZM  29 7
M  ZZI  29 81
M  ZZM  30 10
M  ZZI  30 191
M  ZZM  31 28
M  ZZI  31 11
M  ZZM  32 37
M  ZZI  32 124
M  ZZM  33 37
M  ZZI  33 125
M  ZZM  34 5
M  ZZI  34 1
M  ZZM  35 37
M  ZZI  35 125
M  ZZM  36 5
M  ZZI  36 1
M  ZZM  37 37
M  ZZI  37 124
M  ZZM  38 1
M  ZZI  38 111
M  ZZM  39 5
M  ZZI  39 1
M  ZZM  40 5
M  ZZI  40 1
M  ZZM  41 5
M  ZZI  41 1
M  ZZM  42 37
M  ZZI  42 125
M  ZZM  43 5
M  ZZI  43 1
M  ZZM  44 37
M  ZZI  44 124
M  ZZM  45 1
M  ZZI  45 111
M  ZZM  46 5
M  ZZI  46 1
M  ZZM  47 5
M  ZZI  47 1
M  ZZM  48 5
M  ZZI  48 1
M  END
> <NAME>
Z82191845

> <Score>
-29.126756

> <Natom>
48

> <Nflex>
4

> <Hbond>
-2.957144

> <Hphob>
-6.016069

> <VwInt>
-30.867385

> <Eintl>
7.168573

> <Dsolv>
11.036187

> <SolEl>
3.902774

> <mfScore>
-95.172585

> <RecConf>
1

> <molLogP>
4.213983

$$$$
Z1675880853
  MOLSOFT 11211612053D

 48 50  0  0  1  0  0  0  0  0999 V2000
  -34.5785    8.7130   63.2682 H   0  0  0
  -34.1152    8.0485   64.0013 C   0  0  0
  -34.6269    7.0868   63.9361 H   0  0  0
  -34.2329    8.6520   65.3799 C   0  0  0
  -33.1718    9.0728   66.1046 C   0  0  0
  -33.2337    9.6887   67.3527 N   0  0  0
  -34.0008   10.9144   67.5871 C   0  0  0
  -33.3343   11.7318   67.8811 H   0  0  0
  -34.7337   10.7629   68.3855 H   0  0  0
  -34.5312   11.2374   66.6886 H   0  0  0
  -32.3299    9.3224   68.4447 C   0  0  0
  -32.8023    9.5097   69.4138 H   0  0  0
  -31.4054    9.9069   68.3999 H   0  0  0
  -32.0777    8.2582   68.4081 H   0  0  0
  -31.8518    8.8594   65.5651 C   0  0  0
  -30.9865    9.1810   66.1283 H   0  0  0
  -31.6879    8.2658   64.3875 C   0  0  0
  -30.7082    8.0734   63.9603 H   0  0  0
  -32.7325    7.8340   63.6254 N   0  0  0
  -32.5174    7.2770   62.7987 H   0  0  0
  -35.6430    8.6981   65.9077 C   0  0  0
  -36.2058    9.4292   65.3190 H   0  0  0
  -35.6912    9.0449   66.9426 H   0  0  0
  -36.3443    7.4111   65.8219 N   0  0  0
  -37.3163    7.5582   66.1090 H   0  0  0
  -35.7021    6.3812   66.6762 C   0  0  1
  -34.6511    6.6225   66.8686 H   0  0  0
  -36.4029    6.2203   68.0146 C   0  0  0
  -37.4875    6.1283   67.8845 H   0  0  0
  -36.2121    7.1005   68.6370 H   0  0  0
  -35.8903    4.9880   68.6960 C   0  0  0
  -36.1053    4.8143   70.0547 C   0  0  0
  -36.6618    5.5592   70.6163 H   0  0  0
  -35.6095    3.7060   70.7150 C   0  0  0
  -35.8033    3.6156   71.7773 H   0  0  0
  -34.8875    2.7477   70.0138 C   0  0  0
  -34.3192    1.6036   70.5781 O   0  0  0
  -34.3567    1.5934   72.0078 C   0  0  0
  -33.7784    0.7322   72.3509 H   0  0  0
  -35.3831    1.4726   72.3704 H   0  0  0
  -33.8856    2.4909   72.4231 H   0  0  0
  -34.7008    2.8923   68.6571 C   0  0  0
  -34.1536    2.1372   68.1014 H   0  0  0
  -35.2051    3.9951   68.0028 C   0  0  0
  -34.9543    4.0396   66.6362 O   0  0  0
  -35.7316    5.0371   65.9672 C   0  0  0
  -35.2846    5.1483   64.9813 H   0  0  0
  -36.7489    4.6646   65.8111 H   0  0  0
  2  1  1
  2  3  1
  2  4  1
  2 19  1
  4  5  2
  4 21  1
  5  6  1
  5 15  1
  6  7  1
  6 11  1
  7  8  1
  7  9  1
  7 10  1
 11 12  1
 11 13  1
 11 14  1
 15 16  1
 15 17  2
 17 18  1
 17 19  1
 19 20  1
 21 22  1
 21 23  1
 21 24  1
 24 25  1
 26 24  1
 26 27  1
 26 28  1
 26 46  1
 28 29  1
 28 30  1
 28 31  1
 31 32  2
 31 44  1
 32 33  1
 32 34  1
 34 35  1
 34 36  2
 36 37  1
 36 42  1
 37 38  1
 38 39  1
 38 40  1
 38 41  1
 42 43  1
 42 44  2
 44 45  1
 45 46  1
 46 47  1
 46 48  1
M  ZZC   1 h61
M  ZZC   2 c6
M  ZZC   3 h15
M  ZZC   4 c7
M  ZZC   5 c3
M  ZZC   6 n1
M  ZZC   7 c1
M  ZZC   8 h21
M  ZZC   9 h22
M  ZZC  10 h23
M  ZZC  11 c2
M  ZZC  12 h18
M  ZZC  13 h19
M  ZZC  14 h20
M  ZZC  15 c4
M  ZZC  16 h17
M  ZZC  17 c5
M  ZZC  18 h16
M  ZZC  19 n2
M  ZZC  20 h1
M  ZZC  21 c8
M  ZZC  22 h13
M  ZZC  23 h14
M  ZZC  24 n3
M  ZZC  25 h12
M  ZZC  26 c9
M  ZZC  27 h24
M  ZZC  28 c10
M  ZZC  29 h10
M  ZZC  30 h11
M  ZZC  31 c11
M  ZZC  32 c12
M  ZZC  33 h9
M  ZZC  34 c13
M  ZZC  35 h8
M  ZZC  36 c14
M  ZZC  37 o2
M  ZZC  38 c18
M  ZZC  39 h2
M  ZZC  40 h3
M  ZZC  41 h4
M  ZZC  42 c15
M  ZZC  43 h7
M  ZZC  44 c16
M  ZZC  45 o1
M  ZZC  46 c17
M  ZZC  47 h5
M  ZZC  48 h6
M  ZZM   1 5
M  ZZI   1 1
M  ZZM   2 1
M  ZZI   2 112
M  ZZM   3 5
M  ZZI   3 1
M  ZZM   4 2
M  ZZI   4 120
M  ZZM   5 2
M  ZZI   5 120
M  ZZM   6 40
M  ZZI   6 193
M  ZZM   7 1
M  ZZI   7 111
M  ZZM   8 5
M  ZZI   8 1
M  ZZM   9 5
M  ZZI   9 1
M  ZZM  10 5
M  ZZI  10 1
M  ZZM  11 1
M  ZZI  11 111
M  ZZM  12 5
M  ZZI  12 1
M  ZZM  13 5
M  ZZI  13 1
M  ZZM  14 5
M  ZZI  14 1
M  ZZM  15 2
M  ZZI  15 120
M  ZZM  16 5
M  ZZI  16 1
M  ZZM  17 2
M  ZZI  17 120
M  ZZM  18 5
M  ZZI  18 1
M  ZZM  19 40
M  ZZI  19 194
M  ZZM  20 28
M  ZZI  20 11
M  ZZM  21 1
M  ZZI  21 112
M  ZZM  22 5
M  ZZI  22 1
M  ZZM  23 5
M  ZZI  23 1
M  ZZM  24 8
M  ZZI  24 214
M  ZZM  25 23
M  ZZI  25 10
M  ZZM  26 1
M  ZZI  26 113
M  ZZM  27 5
M  ZZI  27 1
M  ZZM  28 1
M  ZZI  28 112
M  ZZM  29 5
M  ZZI  29 1
M  ZZM  30 5
M  ZZI  30 1
M  ZZM  31 37
M  ZZI  31 124
M  ZZM  32 37
M  ZZI  32 125
M  ZZM  33 5
M  ZZI  33 1
M  ZZM  34 37
M  ZZI  34 125
M  ZZM  35 5
M  ZZI  35 1
M  ZZM  36 37
M  ZZI  36 124
M  ZZM  37 6
M  ZZI  37 59
M  ZZM  38 1
M  ZZI  38 111
M  ZZM  39 5
M  ZZI  39 1
M  ZZM  40 5
M  ZZI  40 1
M  ZZM  41 5
M  ZZI  41 1
M  ZZM  42 37
M  ZZI  42 125
M  ZZM  43 5
M  ZZI  43 1
M  ZZM  44 37
M  ZZI  44 124
M  ZZM  45 6
M  ZZI  45 59
M  ZZM  46 1
M  ZZI  46 112
M  ZZM  47 5
M  ZZI  47 1
M  ZZM  48 5
M  ZZI  48 1
M  END
> <NAME>
Z1675880853

> <Score>
-28.943315

> <Natom>
48

> <Nflex>
3

> <Hbond>
-4.045388

> <Hphob>
-7.297809

> <VwInt>
-28.038731

> <Eintl>
4.428682

> <Dsolv>
11.260875

> <SolEl>
6.0214

> <mfScore>
-98.417729

> <RecConf>
1

> <molLogP>
1.74508

$$$$
Z384681350
  MOLSOFT 11211612053D

 48 50  0  0  1  0  0  0  0  0999 V2000
  -37.4690    7.5019   66.1583 H   0  0  0
  -36.9836    6.6593   66.2281 O   0  0  0
  -36.6201    6.5047   67.6028 C   0  0  1
  -37.5534    6.4913   68.1759 H   0  0  0
  -35.9221    5.1842   67.8088 C   0  0  0
  -35.8455    4.6425   69.0830 C   0  0  0
  -36.2968    5.1568   69.9266 H   0  0  0
  -35.2034    3.4435   69.3003 C   0  0  0
  -35.1629    3.0361   70.3059 H   0  0  0
  -34.6183    2.7604   68.2507 C   0  0  0
  -33.9524    1.4451   68.5032 C   0  0  0
  -33.4298    1.0880   67.6125 H   0  0  0
  -34.6999    0.7014   68.7902 H   0  0  0
  -33.2137    1.5440   69.3023 H   0  0  0
  -34.6933    3.2934   66.9752 C   0  0  0
  -34.2518    2.7691   66.1333 H   0  0  0
  -35.3350    4.4942   66.7571 C   0  0  0
  -35.3750    4.8908   65.7473 H   0  0  0
  -35.7404    7.6771   68.0654 C   0  0  0
  -35.4168    7.5601   69.1046 H   0  0  0
  -36.2894    8.6184   67.9794 H   0  0  0
  -34.5518    7.8009   67.2540 N   0  0  0
  -33.7743    7.1758   67.4348 H   0  0  0
  -34.5479    8.6303   66.1561 C   0  0  0
  -35.4715    9.3537   65.8096 O   0  0  0
  -33.3285    8.5509   65.3273 C   0  0  0
  -33.5391    8.3216   63.9764 C   0  0  0
  -34.5441    8.2129   63.5787 H   0  0  0
  -32.4659    8.2087   63.1258 C   0  0  0
  -32.6220    8.0087   62.0716 H   0  0  0
  -31.1906    8.3319   63.6225 C   0  0  0
  -30.3417    8.2351   62.9531 H   0  0  0
  -30.9815    8.5640   64.9654 C   0  0  0
  -29.9567    8.6491   65.3154 H   0  0  0
  -32.0379    8.6968   65.8546 C   0  0  0
  -31.7108    8.9601   67.3086 C   0  0  0
  -30.6502    9.2095   67.4060 H   0  0  0
  -31.8465    8.0463   67.8890 H   0  0  0
  -32.4281   10.0356   67.9697 N   0  0  0
  -32.8123   11.2305   67.4136 C   0  0  0
  -32.7105   11.5571   66.2411 O   0  0  0
  -33.4163   12.0895   68.4979 C   0  0  0
  -34.4800   12.2638   68.3259 H   0  0  0
  -32.8532   13.0148   68.6487 H   0  0  0
  -33.2421   11.2225   69.6356 N   0  0  0
  -33.4934   11.4558   70.5889 H   0  0  0
  -32.6562   10.0456   69.3104 C   0  0  0
  -32.3727    9.1657   70.1066 O   0  0  0
  2  1  1
  3  2  1
  3  4  1
  3  5  1
  3 19  1
  5  6  1
  5 17  2
  6  7  1
  6  8  2
  8  9  1
  8 10  1
 10 11  1
 10 15  2
 11 12  1
 11 13  1
 11 14  1
 15 16  1
 15 17  1
 17 18  1
 19 20  1
 19 21  1
 19 22  1
 22 23  1
 22 24  1
 24 25  2
 24 26  1
 26 27  2
 26 35  1
 27 28  1
 27 29  1
 29 30  1
 29 31  2
 31 32  1
 31 33  1
 33 34  1
 33 35  2
 35 36  1
 36 37  1
 36 38  1
 36 39  1
 39 40  1
 39 47  1
 40 41  2
 40 42  1
 42 43  1
 42 44  1
 42 45  1
 45 46  1
 45 47  1
 47 48  2
M  ZZC   1 h1
M  ZZC   2 o4
M  ZZC   3 c8
M  ZZC   4 h21
M  ZZC   5 c5
M  ZZC   6 c4
M  ZZC   7 h16
M  ZZC   8 c3
M  ZZC   9 h17
M  ZZC  10 c2
M  ZZC  11 c1
M  ZZC  12 h18
M  ZZC  13 h19
M  ZZC  14 h20
M  ZZC  15 c7
M  ZZC  16 h14
M  ZZC  17 c6
M  ZZC  18 h15
M  ZZC  19 c9
M  ZZC  20 h12
M  ZZC  21 h13
M  ZZC  22 n1
M  ZZC  23 h11
M  ZZC  24 c10
M  ZZC  25 o1
M  ZZC  26 c11
M  ZZC  27 c12
M  ZZC  28 h10
M  ZZC  29 c13
M  ZZC  30 h9
M  ZZC  31 c14
M  ZZC  32 h8
M  ZZC  33 c15
M  ZZC  34 h7
M  ZZC  35 c16
M  ZZC  36 c17
M  ZZC  37 h5
M  ZZC  38 h6
M  ZZC  39 n2
M  ZZC  40 c18
M  ZZC  41 o2
M  ZZC  42 c19
M  ZZC  43 h3
M  ZZC  44 h4
M  ZZC  45 n3
M  ZZC  46 h2
M  ZZC  47 c20
M  ZZC  48 o3
M  ZZM   1 21
M  ZZI   1 20
M  ZZM   2 6
M  ZZI   2 60
M  ZZM   3 1
M  ZZI   3 113
M  ZZM   4 5
M  ZZI   4 1
M  ZZM   5 37
M  ZZI   5 124
M  ZZM   6 37
M  ZZI   6 125
M  ZZM   7 5
M  ZZI   7 1
M  ZZM   8 37
M  ZZI   8 125
M  ZZM   9 5
M  ZZI   9 1
M  ZZM  10 37
M  ZZI  10 124
M  ZZM  11 1
M  ZZI  11 111
M  ZZM  12 5
M  ZZI  12 1
M  ZZM  13 5
M  ZZI  13 1
M  ZZM  14 5
M  ZZI  14 1
M  ZZM  15 37
M  ZZI  15 125
M  ZZM  16 5
M  ZZI  16 1
M  ZZM  17 37
M  ZZI  17 125
M  ZZM  18 5
M  ZZI  18 1
M  ZZM  19 1
M  ZZI  19 112
M  ZZM  20 5
M  ZZI  20 1
M  ZZM  21 5
M  ZZI  21 1
M  ZZM  22 10
M  ZZI  22 211
M  ZZM  23 28
M  ZZI  23 11
M  ZZM  24 3
M  ZZI  24 121
M  ZZM  25 7
M  ZZI  25 81
M  ZZM  26 37
M  ZZI  26 124
M  ZZM  27 37
M  ZZI  27 125
M  ZZM  28 5
M  ZZI  28 1
M  ZZM  29 37
M  ZZI  29 125
M  ZZM  30 5
M  ZZI  30 1
M  ZZM  31 37
M  ZZI  31 125
M  ZZM  32 5
M  ZZI  32 1
M  ZZM  33 37
M  ZZI  33 125
M  ZZM  34 5
M  ZZI  34 1
M  ZZM  35 37
M  ZZI  35 124
M  ZZM  36 1
M  ZZI  36 112
M  ZZM  37 5
M  ZZI  37 1
M  ZZM  38 5
M  ZZI  38 1
M  ZZM  39 10
M  ZZI  39 192
M  ZZM  40 3
M  ZZI  40 121
M  ZZM  41 7
M  ZZI  41 81
M  ZZM  42 1
M  ZZI  42 112
M  ZZM  43 5
M  ZZI  43 1
M  ZZM  44 5
M  ZZI  44 1
M  ZZM  45 10
M  ZZI  45 211
M  ZZM  46 28
M  ZZI  46 11
M  ZZM  47 3
M  ZZI  47 121
M  ZZM  48 7
M  ZZI  48 81
M  END
> <NAME>
Z384681350

> <Score>
-28.403721

> <Natom>
48

> <Nflex>
6

> <Hbond>
-3.647852

> <Hphob>
-6.714342

> <VwInt>
-31.013204

> <Eintl>
7.624701

> <Dsolv>
12.774962

> <SolEl>
4.78172

> <mfScore>
-107.756994

> <RecConf>
1

> <molLogP>
1.043796

$$$$
Z26605766
  MOLSOFT 11211612053D

 48 50  0  0  0  0  0  0  0  0999 V2000
  -30.4484    9.0552   69.9014 Cl  0  0  0
  -31.5518   10.3643   69.6540 C   0  0  0
  -32.1530   10.5412   68.4137 C   0  0  0
  -33.0246   11.6069   68.2371 C   0  0  0
  -33.5266   11.7862   67.2939 H   0  0  0
  -33.2947   12.4546   69.2916 C   0  0  0
  -33.9809   13.2788   69.1460 H   0  0  0
  -32.7093   12.2584   70.5250 C   0  0  0
  -32.9422   12.9227   71.3512 H   0  0  0
  -31.8254   11.2166   70.7065 C   0  0  0
  -31.3553   11.0708   71.6740 H   0  0  0
  -31.8992    9.5810   67.4045 N   0  0  0
  -31.3386    8.7849   67.6928 H   0  0  0
  -32.3901    9.6178   66.1074 C   0  0  0
  -32.8284   10.6111   65.5412 O   0  0  0
  -32.3365    8.2410   65.4543 C   0  0  0
  -32.1647    7.4812   66.2202 H   0  0  0
  -31.4919    8.2142   64.7580 H   0  0  0
  -33.5756    7.9039   64.7422 N   0  0  0
  -33.5029    7.8701   63.2945 C   0  0  0
  -34.5008    7.8491   62.8502 H   0  0  0
  -32.9675    6.9680   62.9940 H   0  0  0
  -32.9607    8.7500   62.9410 H   0  0  0
  -34.7566    7.4942   65.3630 C   0  0  0
  -35.7273    7.0884   64.7388 O   0  0  0
  -34.7695    7.5709   66.8786 C   0  0  0
  -34.1634    6.7623   67.2941 H   0  0  0
  -34.3131    8.5135   67.1781 H   0  0  0
  -36.1741    7.5784   67.4650 C   0  0  0
  -36.7875    8.2951   66.9081 H   0  0  0
  -36.0961    7.9513   68.4903 H   0  0  0
  -36.8872    6.2281   67.4816 C   0  0  0
  -36.9749    5.7989   66.4810 H   0  0  0
  -37.9064    6.3894   67.8462 H   0  0  0
  -36.2698    5.2615   68.3807 N   0  0  0
  -35.4693    4.2149   67.9929 C   0  0  0
  -35.0249    3.8305   66.7471 C   0  0  0
  -35.2778    4.3734   65.8429 H   0  0  0
  -34.2278    2.7014   66.7041 C   0  0  0
  -33.8443    2.3648   65.7493 H   0  0  0
  -33.9111    1.9991   67.8625 C   0  0  0
  -33.2854    1.1152   67.7984 H   0  0  0
  -34.3774    2.4142   69.0987 C   0  0  0
  -34.1370    1.8741   70.0085 H   0  0  0
  -35.1618    3.5439   69.1199 C   0  0  0
  -35.7232    4.1042   70.2645 O   0  0  0
  -36.4310    5.1796   69.7457 C   0  0  0
  -37.1021    5.9296   70.4386 O   0  0  0
  2  1  1
  2  3  1
  2 10  2
  3  4  2
  3 12  1
  4  5  1
  4  6  1
  6  7  1
  6  8  2
  8  9  1
  8 10  1
 10 11  1
 12 13  1
 12 14  1
 14 15  2
 14 16  1
 16 17  1
 16 18  1
 16 19  1
 19 20  1
 19 24  1
 20 21  1
 20 22  1
 20 23  1
 24 25  2
 24 26  1
 26 27  1
 26 28  1
 26 29  1
 29 30  1
 29 31  1
 29 32  1
 32 33  1
 32 34  1
 32 35  1
 35 36  1
 35 47  1
 36 37  2
 36 45  1
 37 38  1
 37 39  1
 39 40  1
 39 41  2
 41 42  1
 41 43  1
 43 44  1
 43 45  2
 45 46  1
 46 47  1
 47 48  2
M  ZZC   1 &Cl1
M  ZZC   2 c9
M  ZZC   3 c4
M  ZZC   4 c5
M  ZZC   5 h14
M  ZZC   6 c6
M  ZZC   7 h13
M  ZZC   8 c7
M  ZZC   9 h12
M  ZZC  10 c8
M  ZZC  11 h11
M  ZZC  12 n2
M  ZZC  13 h15
M  ZZC  14 c3
M  ZZC  15 o1
M  ZZC  16 c2
M  ZZC  17 h16
M  ZZC  18 h17
M  ZZC  19 n1
M  ZZC  20 c1
M  ZZC  21 h18
M  ZZC  22 h19
M  ZZC  23 h20
M  ZZC  24 c10
M  ZZC  25 o2
M  ZZC  26 c11
M  ZZC  27 h10
M  ZZC  28 h9
M  ZZC  29 c12
M  ZZC  30 h7
M  ZZC  31 h8
M  ZZC  32 c13
M  ZZC  33 h5
M  ZZC  34 h6
M  ZZC  35 n3
M  ZZC  36 c14
M  ZZC  37 c15
M  ZZC  38 h4
M  ZZC  39 c16
M  ZZC  40 h3
M  ZZC  41 c17
M  ZZC  42 h2
M  ZZC  43 c18
M  ZZC  44 h1
M  ZZC  45 c19
M  ZZC  46 o3
M  ZZC  47 c20
M  ZZC  48 o4
M  ZZM   1 12
M  ZZI   1 92
M  ZZM   2 37
M  ZZI   2 124
M  ZZM   3 37
M  ZZI   3 124
M  ZZM   4 37
M  ZZI   4 125
M  ZZM   5 5
M  ZZI   5 1
M  ZZM   6 37
M  ZZI   6 125
M  ZZM   7 5
M  ZZI   7 1
M  ZZM   8 37
M  ZZI   8 125
M  ZZM   9 5
M  ZZI   9 1
M  ZZM  10 37
M  ZZI  10 125
M  ZZM  11 5
M  ZZI  11 1
M  ZZM  12 10
M  ZZI  12 191
M  ZZM  13 28
M  ZZI  13 11
M  ZZM  14 3
M  ZZI  14 121
M  ZZM  15 7
M  ZZI  15 81
M  ZZM  16 1
M  ZZI  16 112
M  ZZM  17 5
M  ZZI  17 1
M  ZZM  18 5
M  ZZI  18 1
M  ZZM  19 10
M  ZZI  19 192
M  ZZM  20 1
M  ZZI  20 111
M  ZZM  21 5
M  ZZI  21 1
M  ZZM  22 5
M  ZZI  22 1
M  ZZM  23 5
M  ZZI  23 1
M  ZZM  24 3
M  ZZI  24 121
M  ZZM  25 7
M  ZZI  25 81
M  ZZM  26 1
M  ZZI  26 112
M  ZZM  27 5
M  ZZI  27 1
M  ZZM  28 5
M  ZZI  28 1
M  ZZM  29 1
M  ZZI  29 112
M  ZZM  30 5
M  ZZI  30 1
M  ZZM  31 5
M  ZZI  31 1
M  ZZM  32 1
M  ZZI  32 112
M  ZZM  33 5
M  ZZI  33 1
M  ZZM  34 5
M  ZZI  34 1
M  ZZM  35 10
M  ZZI  35 192
M  ZZM  36 37
M  ZZI  36 124
M  ZZM  37 37
M  ZZI  37 125
M  ZZM  38 5
M  ZZI  38 1
M  ZZM  39 37
M  ZZI  39 125
M  ZZM  40 5
M  ZZI  40 1
M  ZZM  41 37
M  ZZI  41 125
M  ZZM  42 5
M  ZZI  42 1
M  ZZM  43 37
M  ZZI  43 125
M  ZZM  44 5
M  ZZI  44 1
M  ZZM  45 37
M  ZZI  45 124
M  ZZM  46 6
M  ZZI  46 61
M  ZZM  47 3
M  ZZI  47 123
M  ZZM  48 7
M  ZZI  48 82
M  END
> <NAME>
Z26605766

> <Score>
-28.22124

> <Natom>
48

> <Nflex>
7

> <Hbond>
-3.099146

> <Hphob>
-7.291318

> <VwInt>
-31.873574

> <Eintl>
9.64027

> <Dsolv>
10.59718

> <SolEl>
6.409806

> <mfScore>
-99.550954

> <RecConf>
1

> <molLogP>
3.02036

$$$$
Z18477911
  MOLSOFT 11211612053D

 48 51  0  0  0  0  0  0  0  0999 V2000
  -30.3774    7.8746   71.3259 O   0  0  0
  -30.9871    8.8315   70.8735 C   0  0  0
  -30.9180   10.1508   71.5400 C   0  0  0
  -30.3033   10.1874   72.4319 H   0  0  0
  -31.5689   11.2313   71.0970 C   0  0  0
  -31.4859   12.5501   71.8044 C   0  0  0
  -32.4839   12.9226   72.0565 H   0  0  0
  -30.9720   13.2924   71.1885 H   0  0  0
  -30.9380   12.4628   72.7470 H   0  0  0
  -32.3637   11.0871   69.8800 C   0  0  0
  -33.0402   12.1479   69.2896 C   0  0  0
  -33.0013   13.1454   69.7094 H   0  0  0
  -33.7740   11.9571   68.1379 C   0  0  0
  -34.2834   12.7934   67.6764 H   0  0  0
  -33.8720   10.7045   67.5772 C   0  0  0
  -33.1824    9.6417   68.1320 C   0  0  0
  -33.1969    8.6576   67.6774 H   0  0  0
  -32.4338    9.8449   69.2737 C   0  0  0
  -31.7620    8.7314   69.7523 O   0  0  0
  -34.6259   10.5841   66.4132 O   0  0  0
  -35.6420    9.5681   66.5442 C   0  0  0
  -36.5465    9.9117   66.0347 H   0  0  0
  -35.9038    9.4078   67.5963 H   0  0  0
  -35.2139    8.2954   65.8839 C   0  0  0
  -35.3226    7.1769   66.5991 N   0  0  0
  -34.8319    6.0790   66.0322 C   0  0  0
  -34.2428    6.0902   64.8394 N   0  0  0
  -34.2011    7.2481   64.1944 C   0  0  0
  -34.7045    8.3771   64.6572 N   0  0  0
  -33.5667    7.2897   62.9695 N   0  0  0
  -33.6372    8.1293   62.4049 H   0  0  0
  -33.0219    6.4888   62.6726 H   0  0  0
  -34.8570    4.8488   66.7010 N   0  0  0
  -34.4601    4.1161   66.1247 H   0  0  0
  -35.2863    4.4929   68.0061 C   0  0  0
  -35.0832    3.1951   68.4910 C   0  0  0
  -34.4449    2.1212   67.6559 C   0  0  0
  -34.6429    1.1332   68.0818 H   0  0  0
  -33.3626    2.2519   67.6140 H   0  0  0
  -34.8520    2.1131   66.6409 H   0  0  0
  -35.4314    2.8809   69.7982 C   0  0  0
  -35.2553    1.8818   70.1861 H   0  0  0
  -36.0164    3.8145   70.6240 C   0  0  0
  -36.2968    3.5490   71.6386 H   0  0  0
  -36.2584    5.0802   70.1469 C   0  0  0
  -36.7320    5.8196   70.7855 H   0  0  0
  -35.8901    5.4113   68.8599 C   0  0  0
  -36.0893    6.4233   68.5322 H   0  0  0
  2  1  2
  2  3  1
  2 19  1
  3  4  1
  3  5  2
  5  6  1
  5 10  1
  6  7  1
  6  8  1
  6  9  1
 10 11  2
 10 18  1
 11 12  1
 11 13  1
 13 14  1
 13 15  2
 15 16  1
 15 20  1
 16 17  1
 16 18  2
 18 19  1
 20 21  1
 21 22  1
 21 23  1
 21 24  1
 24 25  2
 24 29  1
 25 26  1
 26 27  2
 26 33  1
 27 28  1
 28 29  2
 28 30  1
 30 31  1
 30 32  1
 33 34  1
 33 35  1
 35 36  1
 35 47  2
 36 37  1
 36 41  2
 37 38  1
 37 39  1
 37 40  1
 41 42  1
 41 43  1
 43 44  1
 43 45  2
 45 46  1
 45 47  1
 47 48  1
M  ZZC   1 o2
M  ZZC   2 c18
M  ZZC   3 c17
M  ZZC   4 h5
M  ZZC   5 c16
M  ZZC   6 c21
M  ZZC   7 h1
M  ZZC   8 h2
M  ZZC   9 h3
M  ZZC  10 c15
M  ZZC  11 c14
M  ZZC  12 h6
M  ZZC  13 c13
M  ZZC  14 h7
M  ZZC  15 c12
M  ZZC  16 c20
M  ZZC  17 h4
M  ZZC  18 c19
M  ZZC  19 o3
M  ZZC  20 o1
M  ZZC  21 c11
M  ZZC  22 h8
M  ZZC  23 h9
M  ZZC  24 c9
M  ZZC  25 n2
M  ZZC  26 c8
M  ZZC  27 n4
M  ZZC  28 c10
M  ZZC  29 n3
M  ZZC  30 n5
M  ZZC  31 h10
M  ZZC  32 h11
M  ZZC  33 n1
M  ZZC  34 h12
M  ZZC  35 c7
M  ZZC  36 c2
M  ZZC  37 c1
M  ZZC  38 h17
M  ZZC  39 h18
M  ZZC  40 h19
M  ZZC  41 c3
M  ZZC  42 h16
M  ZZC  43 c4
M  ZZC  44 h15
M  ZZC  45 c5
M  ZZC  46 h14
M  ZZC  47 c6
M  ZZC  48 h13
M  ZZM   1 7
M  ZZI   1 82
M  ZZM   2 3
M  ZZI   2 123
M  ZZM   3 2
M  ZZI   3 120
M  ZZM   4 5
M  ZZI   4 1
M  ZZM   5 2
M  ZZI   5 120
M  ZZM   6 1
M  ZZI   6 111
M  ZZM   7 5
M  ZZI   7 1
M  ZZM   8 5
M  ZZI   8 1
M  ZZM   9 5
M  ZZI   9 1
M  ZZM  10 37
M  ZZI  10 124
M  ZZM  11 37
M  ZZI  11 125
M  ZZM  12 5
M  ZZI  12 1
M  ZZM  13 37
M  ZZI  13 125
M  ZZM  14 5
M  ZZI  14 1
M  ZZM  15 37
M  ZZI  15 124
M  ZZM  16 37
M  ZZI  16 125
M  ZZM  17 5
M  ZZI  17 1
M  ZZM  18 37
M  ZZI  18 124
M  ZZM  19 6
M  ZZI  19 59
M  ZZM  20 6
M  ZZI  20 59
M  ZZM  21 1
M  ZZI  21 112
M  ZZM  22 5
M  ZZI  22 1
M  ZZM  23 5
M  ZZI  23 1
M  ZZM  24 37
M  ZZI  24 124
M  ZZM  25 38
M  ZZI  25 223
M  ZZM  26 37
M  ZZI  26 124
M  ZZM  27 38
M  ZZI  27 223
M  ZZM  28 37
M  ZZI  28 124
M  ZZM  29 38
M  ZZI  29 223
M  ZZM  30 40
M  ZZI  30 224
M  ZZM  31 28
M  ZZI  31 11
M  ZZM  32 28
M  ZZI  32 11
M  ZZM  33 40
M  ZZI  33 194
M  ZZM  34 28
M  ZZI  34 11
M  ZZM  35 37
M  ZZI  35 124
M  ZZM  36 37
M  ZZI  36 124
M  ZZM  37 1
M  ZZI  37 111
M  ZZM  38 5
M  ZZI  38 1
M  ZZM  39 5
M  ZZI  39 1
M  ZZM  40 5
M  ZZI  40 1
M  ZZM  41 37
M  ZZI  41 125
M  ZZM  42 5
M  ZZI  42 1
M  ZZM  43 37
M  ZZI  43 125
M  ZZM  44 5
M  ZZI  44 1
M  ZZM  45 37
M  ZZI  45 125
M  ZZM  46 5
M  ZZI  46 1
M  ZZM  47 37
M  ZZI  47 125
M  ZZM  48 5
M  ZZI  48 1
M  END
> <NAME>
Z18477911

> <Score>
-28.044293

> <Natom>
48

> <Nflex>
2

> <Hbond>
-6.181354

> <Hphob>
-6.920638

> <VwInt>
-27.944985

> <Eintl>
8.083118

> <Dsolv>
19.204271

> <SolEl>
6.929004

> <mfScore>
-86.295202

> <RecConf>
1

> <molLogP>
3.765894

$$$$
Z217985006
  MOLSOFT 11211612053D

 48 51  0  0  0  0  0  0  0  0999 V2000
  -35.8621    6.8674   64.9420 O   0  0  0
  -35.2277    7.1724   65.9436 C   0  0  0
  -33.8472    7.7274   65.9715 C   0  0  0
  -33.0970    7.9149   64.8035 C   0  0  0
  -33.6265    7.6108   63.4311 C   0  0  0
  -32.8813    7.8460   62.6659 H   0  0  0
  -33.8661    6.5483   63.3299 H   0  0  0
  -34.5458    8.1693   63.2402 H   0  0  0
  -31.7919    8.3727   64.9206 C   0  0  0
  -31.1774    8.4977   64.0331 H   0  0  0
  -31.2393    8.6542   66.1525 C   0  0  0
  -30.2035    8.9711   66.2056 H   0  0  0
  -32.0067    8.5086   67.2943 C   0  0  0
  -33.2995    8.0217   67.2170 C   0  0  0
  -33.8683    7.8752   68.1308 H   0  0  0
  -31.2811    8.8725   68.9147 S   0  0  0
  -31.9333    8.0332   69.9007 O   0  0  0
  -29.8401    8.8559   68.7565 O   0  0  0
  -31.7176   10.4967   69.1810 N   0  0  0
  -31.0260   11.1689   68.8405 H   0  0  0
  -33.1174   10.9009   68.9818 C   0  0  0
  -33.8113   10.2921   69.5521 H   0  0  0
  -33.5892   11.4665   67.6731 C   0  0  0
  -34.5904   11.2164   67.3474 H   0  0  0
  -32.8670   11.5796   66.8762 H   0  0  0
  -33.4448   12.3615   68.8645 C   0  0  0
  -32.6269   13.0699   68.8712 H   0  0  0
  -34.3453   12.7285   69.3325 H   0  0  0
  -35.6254    7.0392   67.2403 O   0  0  0
  -36.7685    6.2048   67.4240 C   0  0  0
  -37.0426    5.6698   66.5101 H   0  0  0
  -37.6198    6.8333   67.6989 H   0  0  0
  -36.4395    5.2406   68.5304 C   0  0  0
  -36.9479    5.4498   69.8054 C   0  0  0
  -37.6090    6.2862   70.0059 H   0  0  0
  -36.6303    4.5985   70.8384 C   0  0  0
  -37.0372    4.7706   71.8301 H   0  0  0
  -35.7972    3.5272   70.6076 C   0  0  0
  -35.5551    2.8595   71.4294 H   0  0  0
  -35.2903    3.3004   69.3373 C   0  0  0
  -35.6049    4.1532   68.2779 C   0  0  0
  -35.1341    3.9448   67.0342 N   0  0  0
  -34.3539    2.8752   66.8477 C   0  0  0
  -34.0043    2.7347   65.8304 H   0  0  0
  -33.9903    1.9922   67.8385 C   0  0  0
  -33.3451    1.1486   67.6232 H   0  0  0
  -34.4652    2.2087   69.1116 C   0  0  0
  -34.1963    1.5247   69.9113 H   0  0  0
  2  1  2
  2  3  1
  2 29  1
  3  4  1
  3 14  2
  4  5  1
  4  9  2
  5  6  1
  5  7  1
  5  8  1
  9 10  1
  9 11  1
 11 12  1
 11 13  2
 13 14  1
 13 16  1
 14 15  1
 16 17  2
 16 18  2
 16 19  1
 19 20  1
 19 21  1
 21 22  1
 21 23  1
 21 26  1
 23 24  1
 23 25  1
 23 26  1
 26 27  1
 26 28  1
 29 30  1
 30 31  1
 30 32  1
 30 33  1
 33 34  2
 33 41  1
 34 35  1
 34 36  1
 36 37  1
 36 38  2
 38 39  1
 38 40  1
 40 41  2
 40 47  1
 41 42  1
 42 43  2
 43 44  1
 43 45  1
 45 46  1
 45 47  2
 47 48  1
M  ZZC   1 o1
M  ZZC   2 c8
M  ZZC   3 c7
M  ZZC   4 c2
M  ZZC   5 c1
M  ZZC   6 h18
M  ZZC   7 h19
M  ZZC   8 h20
M  ZZC   9 c3
M  ZZC  10 h17
M  ZZC  11 c4
M  ZZC  12 h16
M  ZZC  13 c5
M  ZZC  14 c6
M  ZZC  15 h15
M  ZZC  16 s1
M  ZZC  17 o3
M  ZZC  18 o4
M  ZZC  19 n2
M  ZZC  20 h6
M  ZZC  21 c19
M  ZZC  22 h5
M  ZZC  23 c20
M  ZZC  24 h3
M  ZZC  25 h4
M  ZZC  26 c21
M  ZZC  27 h1
M  ZZC  28 h2
M  ZZC  29 o2
M  ZZC  30 c9
M  ZZC  31 h13
M  ZZC  32 h14
M  ZZC  33 c10
M  ZZC  34 c11
M  ZZC  35 h12
M  ZZC  36 c12
M  ZZC  37 h11
M  ZZC  38 c13
M  ZZC  39 h10
M  ZZC  40 c14
M  ZZC  41 c15
M  ZZC  42 n1
M  ZZC  43 c16
M  ZZC  44 h9
M  ZZC  45 c17
M  ZZC  46 h8
M  ZZC  47 c18
M  ZZC  48 h7
M  ZZM   1 7
M  ZZI   1 82
M  ZZM   2 3
M  ZZI   2 123
M  ZZM   3 37
M  ZZI   3 124
M  ZZM   4 37
M  ZZI   4 124
M  ZZM   5 1
M  ZZI   5 111
M  ZZM   6 5
M  ZZI   6 1
M  ZZM   7 5
M  ZZI   7 1
M  ZZM   8 5
M  ZZI   8 1
M  ZZM   9 37
M  ZZI   9 125
M  ZZM  10 5
M  ZZI  10 1
M  ZZM  11 37
M  ZZI  11 125
M  ZZM  12 5
M  ZZI  12 1
M  ZZM  13 37
M  ZZI  13 124
M  ZZM  14 37
M  ZZI  14 125
M  ZZM  15 5
M  ZZI  15 1
M  ZZM  16 18
M  ZZI  16 250
M  ZZM  17 32
M  ZZI  17 73
M  ZZM  18 32
M  ZZI  18 73
M  ZZM  19 43
M  ZZI  19 196
M  ZZM  20 28
M  ZZI  20 11
M  ZZM  21 22
M  ZZI  21 109
M  ZZM  22 5
M  ZZI  22 1
M  ZZM  23 22
M  ZZI  23 109
M  ZZM  24 5
M  ZZI  24 1
M  ZZM  25 5
M  ZZI  25 1
M  ZZM  26 22
M  ZZI  26 109
M  ZZM  27 5
M  ZZI  27 1
M  ZZM  28 5
M  ZZI  28 1
M  ZZM  29 6
M  ZZI  29 65
M  ZZM  30 1
M  ZZI  30 112
M  ZZM  31 5
M  ZZI  31 1
M  ZZM  32 5
M  ZZI  32 1
M  ZZM  33 37
M  ZZI  33 124
M  ZZM  34 37
M  ZZI  34 125
M  ZZM  35 5
M  ZZI  35 1
M  ZZM  36 37
M  ZZI  36 125
M  ZZM  37 5
M  ZZI  37 1
M  ZZM  38 37
M  ZZI  38 125
M  ZZM  39 5
M  ZZI  39 1
M  ZZM  40 37
M  ZZI  40 124
M  ZZM  41 37
M  ZZI  41 124
M  ZZM  42 38
M  ZZI  42 223
M  ZZM  43 37
M  ZZI  43 125
M  ZZM  44 5
M  ZZI  44 1
M  ZZM  45 37
M  ZZI  45 125
M  ZZM  46 5
M  ZZI  46 1
M  ZZM  47 37
M  ZZI  47 125
M  ZZM  48 5
M  ZZI  48 1
M  END
> <NAME>
Z217985006

> <Score>
-27.913841

> <Natom>
48

> <Nflex>
5

> <Hbond>
-2.584594

> <Hphob>
-7.340591

> <VwInt>
-31.114932

> <Eintl>
8.710119

> <Dsolv>
11.932098

> <SolEl>
4.104903

> <mfScore>
-96.616803

> <RecConf>
1

> <molLogP>
4.680007

$$$$
Z281161640
  MOLSOFT 11211612053D

 48 51  0  0  1  0  0  0  0  0999 V2000
  -34.3990    8.0108   62.6496 H   0  0  0
  -34.5903    7.7477   63.5693 O   0  0  0
  -34.5490    8.9176   64.3930 C   0  0  1
  -34.7789    9.7761   63.7537 H   0  0  0
  -35.6441    8.8522   65.4758 C   0  0  0
  -36.6141    8.6499   65.0137 H   0  0  0
  -35.7279    9.8145   65.9902 H   0  0  0
  -35.4324    7.8227   66.4891 N   0  0  0
  -35.7603    6.4987   66.2233 C   0  0  0
  -36.2920    6.1046   65.1951 O   0  0  0
  -35.4631    5.5174   67.2773 C   0  0  0
  -35.6293    4.1630   67.0302 C   0  0  0
  -35.9273    3.8003   66.0507 H   0  0  0
  -35.4063    3.2588   68.0485 C   0  0  0
  -35.5192    2.1949   67.8626 H   0  0  0
  -35.0666    3.7046   69.3096 C   0  0  0
  -34.9204    2.9879   70.1121 H   0  0  0
  -34.8966    5.0540   69.5528 C   0  0  0
  -34.6202    5.3709   70.5532 H   0  0  0
  -35.0489    5.9597   68.5109 C   0  0  0
  -34.7661    7.4012   68.6474 C   0  0  0
  -34.9477    8.2651   67.6940 N   0  0  0
  -34.2307    7.9706   69.9471 C   0  0  0
  -33.3148    7.4337   70.5508 O   0  0  0
  -34.8454    9.1296   70.3193 N   0  0  0
  -34.5681    9.6015   71.1720 H   0  0  0
  -35.5338    9.5685   69.7184 H   0  0  0
  -33.1408    9.0813   64.9656 C   0  0  0
  -32.9302    8.2672   65.6639 H   0  0  0
  -32.3992    9.0011   64.1635 H   0  0  0
  -33.0194   10.3875   65.5598 O   0  0  0
  -32.5286   10.3514   66.8634 C   0  0  0
  -33.0167   11.3207   67.7151 C   0  0  0
  -33.7436   12.0379   67.3467 H   0  0  0
  -32.6021   11.3548   69.0359 C   0  0  0
  -33.1145   12.3018   69.9072 C   0  0  0
  -33.8396   13.0300   69.5595 H   0  0  0
  -32.7105   12.3236   71.2265 C   0  0  0
  -33.1223   13.0613   71.9084 H   0  0  0
  -31.7819   11.4102   71.6786 C   0  0  0
  -31.4608   11.4326   72.7151 H   0  0  0
  -31.2628   10.4651   70.8160 C   0  0  0
  -30.5368    9.7493   71.1893 H   0  0  0
  -31.6734   10.4270   69.4914 C   0  0  0
  -31.1650    9.4744   68.6195 C   0  0  0
  -30.4335    8.7486   68.9619 H   0  0  0
  -31.5856    9.4345   67.3047 C   0  0  0
  -31.1490    8.6973   66.6396 H   0  0  0
  2  1  1
  3  2  1
  3  4  1
  3  5  1
  3 28  1
  5  6  1
  5  7  1
  5  8  1
  8  9  1
  8 22  1
  9 10  2
  9 11  1
 11 12  1
 11 20  2
 12 13  1
 12 14  2
 14 15  1
 14 16  1
 16 17  1
 16 18  2
 18 19  1
 18 20  1
 20 21  1
 21 22  2
 21 23  1
 23 24  2
 23 25  1
 25 26  1
 25 27  1
 28 29  1
 28 30  1
 28 31  1
 31 32  1
 32 33  2
 32 47  1
 33 34  1
 33 35  1
 35 36  1
 35 44  2
 36 37  1
 36 38  2
 38 39  1
 38 40  1
 40 41  1
 40 42  2
 42 43  1
 42 44  1
 44 45  1
 45 46  1
 45 47  2
 47 48  1
M  ZZC   1 h1
M  ZZC   2 o4
M  ZZC   3 c12
M  ZZC   4 h19
M  ZZC   5 c13
M  ZZC   6 h8
M  ZZC   7 h9
M  ZZC   8 n1
M  ZZC   9 c14
M  ZZC  10 o2
M  ZZC  11 c15
M  ZZC  12 c16
M  ZZC  13 h7
M  ZZC  14 c17
M  ZZC  15 h6
M  ZZC  16 c18
M  ZZC  17 h5
M  ZZC  18 c19
M  ZZC  19 h4
M  ZZC  20 c20
M  ZZC  21 c21
M  ZZC  22 n2
M  ZZC  23 c22
M  ZZC  24 o3
M  ZZC  25 n3
M  ZZC  26 h2
M  ZZC  27 h3
M  ZZC  28 c11
M  ZZC  29 h10
M  ZZC  30 h11
M  ZZC  31 o1
M  ZZC  32 c6
M  ZZC  33 c5
M  ZZC  34 h15
M  ZZC  35 c4
M  ZZC  36 c3
M  ZZC  37 h16
M  ZZC  38 c2
M  ZZC  39 h17
M  ZZC  40 c1
M  ZZC  41 h18
M  ZZC  42 c10
M  ZZC  43 h12
M  ZZC  44 c9
M  ZZC  45 c8
M  ZZC  46 h13
M  ZZC  47 c7
M  ZZC  48 h14
M  ZZM   1 21
M  ZZI   1 20
M  ZZM   2 6
M  ZZI   2 60
M  ZZM   3 1
M  ZZI   3 113
M  ZZM   4 5
M  ZZI   4 1
M  ZZM   5 1
M  ZZI   5 112
M  ZZM   6 5
M  ZZI   6 1
M  ZZM   7 5
M  ZZI   7 1
M  ZZM   8 10
M  ZZI   8 192
M  ZZM   9 3
M  ZZI   9 121
M  ZZM  10 7
M  ZZI  10 81
M  ZZM  11 37
M  ZZI  11 124
M  ZZM  12 37
M  ZZI  12 125
M  ZZM  13 5
M  ZZI  13 1
M  ZZM  14 37
M  ZZI  14 125
M  ZZM  15 5
M  ZZI  15 1
M  ZZM  16 37
M  ZZI  16 125
M  ZZM  17 5
M  ZZI  17 1
M  ZZM  18 37
M  ZZI  18 125
M  ZZM  19 5
M  ZZI  19 1
M  ZZM  20 37
M  ZZI  20 124
M  ZZM  21 3
M  ZZI  21 121
M  ZZM  22 9
M  ZZI  22 220
M  ZZM  23 3
M  ZZI  23 121
M  ZZM  24 7
M  ZZI  24 81
M  ZZM  25 10
M  ZZI  25 212
M  ZZM  26 28
M  ZZI  26 11
M  ZZM  27 28
M  ZZI  27 11
M  ZZM  28 1
M  ZZI  28 112
M  ZZM  29 5
M  ZZI  29 1
M  ZZM  30 5
M  ZZI  30 1
M  ZZM  31 6
M  ZZI  31 59
M  ZZM  32 37
M  ZZI  32 124
M  ZZM  33 37
M  ZZI  33 125
M  ZZM  34 5
M  ZZI  34 1
M  ZZM  35 37
M  ZZI  35 124
M  ZZM  36 37
M  ZZI  36 125
M  ZZM  37 5
M  ZZI  37 1
M  ZZM  38 37
M  ZZI  38 125
M  ZZM  39 5
M  ZZI  39 1
M  ZZM  40 37
M  ZZI  40 125
M  ZZM  41 5
M  ZZI  41 1
M  ZZM  42 37
M  ZZI  42 125
M  ZZM  43 5
M  ZZI  43 1
M  ZZM  44 37
M  ZZI  44 124
M  ZZM  45 37
M  ZZI  45 125
M  ZZM  46 5
M  ZZI  46 1
M  ZZM  47 37
M  ZZI  47 125
M  ZZM  48 5
M  ZZI  48 1
M  END
> <NAME>
Z281161640

> <Score>
-27.74145

> <Natom>
48

> <Nflex>
6

> <Hbond>
-6.045661

> <Hphob>
-6.734055

> <VwInt>
-30.457403

> <Eintl>
7.723663

> <Dsolv>
17.105322

> <SolEl>
9.233788

> <mfScore>
-106.357464

> <RecConf>
1

> <molLogP>
2.335669

$$$$
Z1344039920
  MOLSOFT 11211612053D

 48 50  0  0  1  0  0  0  0  0999 V2000
  -34.1621    1.6917   68.1649 F   0  0  0
  -34.5764    2.9560   67.9873 C   0  0  0
  -34.8821    3.4036   66.7234 C   0  0  0
  -34.7990    2.7288   65.8784 H   0  0  0
  -35.3127    4.7041   66.5451 C   0  0  0
  -35.5906    5.0108   65.5451 H   0  0  0
  -35.4123    5.5785   67.6235 C   0  0  0
  -35.1177    5.0920   68.8911 C   0  0  0
  -35.2130    5.7355   69.7607 H   0  0  0
  -34.7003    3.7880   69.0746 C   0  0  0
  -34.4708    3.4143   70.0667 H   0  0  0
  -35.9169    6.9603   67.5242 C   0  0  0
  -36.4406    7.2793   68.4162 H   0  0  0
  -35.8289    7.8523   66.5162 C   0  0  0
  -36.4617    9.2016   66.5608 C   0  0  0
  -37.5086    9.1477   66.2521 H   0  0  0
  -35.9646    9.8921   65.8764 H   0  0  0
  -36.4011    9.6300   67.5642 H   0  0  0
  -35.1410    7.5682   65.2396 C   0  0  0
  -35.7612    7.0169   64.3442 O   0  0  0
  -33.8265    8.0041   65.1499 N   0  0  0
  -33.0644    7.7429   63.9541 C   0  0  0
  -33.6075    8.0778   63.0646 H   0  0  0
  -32.9222    6.6617   63.8818 H   0  0  0
  -31.7573    8.4690   64.1649 C   0  0  0
  -31.8566    9.4953   63.7998 H   0  0  0
  -30.9227    8.0055   63.6302 H   0  0  0
  -31.5805    8.4566   65.6741 C   0  0  0
  -31.1376    7.5154   65.9930 H   0  0  0
  -30.9204    9.2554   66.0220 H   0  0  0
  -32.9953    8.5580   66.2202 C   0  0  2
  -33.1190    7.9346   67.1059 H   0  0  0
  -33.2623   10.0402   66.5257 C   0  0  0
  -33.3077   10.8630   65.6218 O   0  0  0
  -33.4103   10.4183   67.8623 N   0  0  0
  -33.8439   11.7788   68.1507 C   0  0  0
  -34.9242   11.7190   68.3100 H   0  0  0
  -33.6711   12.4339   67.2923 H   0  0  0
  -33.1743   12.3417   69.3946 C   0  0  0
  -33.6154   13.3058   69.6526 H   0  0  0
  -32.1067   12.5038   69.2281 H   0  0  0
  -33.3478   11.4580   70.5092 O   0  0  0
  -32.7313   10.1962   70.2266 C   0  0  0
  -32.8399    9.5613   71.1106 H   0  0  0
  -31.6591   10.3507   70.0592 H   0  0  0
  -33.3841    9.5288   69.0213 C   0  0  0
  -32.8604    8.5985   68.7974 H   0  0  0
  -34.4268    9.2849   69.2507 H   0  0  0
  2  1  1
  2  3  1
  2 10  2
  3  4  1
  3  5  2
  5  6  1
  5  7  1
  7  8  2
  7 12  1
  8  9  1
  8 10  1
 10 11  1
 12 13  1
 12 14  2
 14 15  1
 14 19  1
 15 16  1
 15 17  1
 15 18  1
 19 20  2
 19 21  1
 21 22  1
 31 21  1
 22 23  1
 22 24  1
 22 25  1
 25 26  1
 25 27  1
 25 28  1
 28 29  1
 28 30  1
 31 28  1
 31 32  1
 31 33  1
 33 34  2
 33 35  1
 35 36  1
 35 46  1
 36 37  1
 36 38  1
 36 39  1
 39 40  1
 39 41  1
 39 42  1
 42 43  1
 43 44  1
 43 45  1
 43 46  1
 46 47  1
 46 48  1
M  ZZC   1 f1
M  ZZC   2 c7
M  ZZC   3 c6
M  ZZC   4 h17
M  ZZC   5 c5
M  ZZC   6 h18
M  ZZC   7 c4
M  ZZC   8 c9
M  ZZC   9 h15
M  ZZC  10 c8
M  ZZC  11 h16
M  ZZC  12 c3
M  ZZC  13 h19
M  ZZC  14 c2
M  ZZC  15 c1
M  ZZC  16 h20
M  ZZC  17 h21
M  ZZC  18 h22
M  ZZC  19 c10
M  ZZC  20 o1
M  ZZC  21 n1
M  ZZC  22 c11
M  ZZC  23 h13
M  ZZC  24 h14
M  ZZC  25 c12
M  ZZC  26 h11
M  ZZC  27 h12
M  ZZC  28 c13
M  ZZC  29 h10
M  ZZC  30 h9
M  ZZC  31 c14
M  ZZC  32 h23
M  ZZC  33 c15
M  ZZC  34 o2
M  ZZC  35 n2
M  ZZC  36 c16
M  ZZC  37 h7
M  ZZC  38 h8
M  ZZC  39 c17
M  ZZC  40 h5
M  ZZC  41 h6
M  ZZC  42 o3
M  ZZC  43 c18
M  ZZC  44 h3
M  ZZC  45 h4
M  ZZC  46 c19
M  ZZC  47 h1
M  ZZC  48 h2
M  ZZM   1 11
M  ZZI   1 90
M  ZZM   2 37
M  ZZI   2 124
M  ZZM   3 37
M  ZZI   3 125
M  ZZM   4 5
M  ZZI   4 1
M  ZZM   5 37
M  ZZI   5 125
M  ZZM   6 5
M  ZZI   6 1
M  ZZM   7 37
M  ZZI   7 124
M  ZZM   8 37
M  ZZI   8 125
M  ZZM   9 5
M  ZZI   9 1
M  ZZM  10 37
M  ZZI  10 125
M  ZZM  11 5
M  ZZI  11 1
M  ZZM  12 2
M  ZZI  12 120
M  ZZM  13 5
M  ZZI  13 1
M  ZZM  14 2
M  ZZI  14 120
M  ZZM  15 1
M  ZZI  15 111
M  ZZM  16 5
M  ZZI  16 1
M  ZZM  17 5
M  ZZI  17 1
M  ZZM  18 5
M  ZZI  18 1
M  ZZM  19 3
M  ZZI  19 121
M  ZZM  20 7
M  ZZI  20 81
M  ZZM  21 10
M  ZZI  21 192
M  ZZM  22 1
M  ZZI  22 112
M  ZZM  23 5
M  ZZI  23 1
M  ZZM  24 5
M  ZZI  24 1
M  ZZM  25 1
M  ZZI  25 112
M  ZZM  26 5
M  ZZI  26 1
M  ZZM  27 5
M  ZZI  27 1
M  ZZM  28 1
M  ZZI  28 112
M  ZZM  29 5
M  ZZI  29 1
M  ZZM  30 5
M  ZZI  30 1
M  ZZM  31 1
M  ZZI  31 113
M  ZZM  32 5
M  ZZI  32 1
M  ZZM  33 3
M  ZZI  33 121
M  ZZM  34 7
M  ZZI  34 81
M  ZZM  35 10
M  ZZI  35 192
M  ZZM  36 1
M  ZZI  36 112
M  ZZM  37 5
M  ZZI  37 1
M  ZZM  38 5
M  ZZI  38 1
M  ZZM  39 1
M  ZZI  39 112
M  ZZM  40 5
M  ZZI  40 1
M  ZZM  41 5
M  ZZI  41 1
M  ZZM  42 6
M  ZZI  42 65
M  ZZM  43 1
M  ZZI  43 112
M  ZZM  44 5
M  ZZI  44 1
M  ZZM  45 5
M  ZZI  45 1
M  ZZM  46 1
M  ZZI  46 112
M  ZZM  47 5
M  ZZI  47 1
M  ZZM  48 5
M  ZZI  48 1
M  END
> <NAME>
Z1344039920

> <Score>
-27.389804

> <Natom>
48

> <Nflex>
4

> <Hbond>
-3.088087

> <Hphob>
-7.579785

> <VwInt>
-26.314426

> <Eintl>
8.277042

> <Dsolv>
9.052601

> <SolEl>
3.979524

> <mfScore>
-83.820944

> <RecConf>
1

> <molLogP>
2.258445

$$$$
Z653213378
  MOLSOFT 11211612053D

 48 50  0  0  0  0  0  0  0  0999 V2000
  -34.0223    9.1408   69.0470 H   0  0  0
  -33.7390   10.0137   69.6264 C   0  0  0
  -33.3729   11.1933   68.9908 C   0  0  0
  -32.9958   12.2780   69.7670 C   0  0  0
  -32.6939   13.2072   69.2944 H   0  0  0
  -32.9870   12.1849   71.1445 C   0  0  0
  -32.6902   13.0370   71.7466 H   0  0  0
  -33.3530   11.0092   71.7635 C   0  0  0
  -33.3415   10.9389   72.8465 H   0  0  0
  -33.7352    9.9251   71.0030 C   0  0  0
  -34.0266    8.9982   71.4870 H   0  0  0
  -33.3122   11.2754   67.4915 C   0  0  0
  -33.3157   12.3211   67.1642 H   0  0  0
  -32.3791   10.8025   67.1676 H   0  0  0
  -34.4688   10.6302   66.9425 O   0  0  0
  -34.1466    9.9434   65.7771 C   0  0  0
  -35.0383    8.9704   65.3508 C   0  0  0
  -34.6830    8.2158   64.2402 C   0  0  0
  -35.3195    7.4218   63.8662 H   0  0  0
  -33.4796    8.4629   63.6229 C   0  0  0
  -33.1639    7.8767   62.7654 H   0  0  0
  -32.6945    9.4857   64.1018 C   0  0  0
  -31.7562    9.7073   63.6085 H   0  0  0
  -33.0064   10.2643   65.1482 N   0  0  0
  -36.3046    8.6823   66.1064 C   0  0  0
  -36.6616    9.5627   66.6463 H   0  0  0
  -37.0965    8.3976   65.4107 H   0  0  0
  -36.1035    7.6215   67.0653 N   0  0  0
  -35.8283    7.8462   68.0163 H   0  0  0
  -36.1574    6.2936   66.7101 C   0  0  0
  -36.4673    5.8930   65.5963 O   0  0  0
  -35.7557    5.4104   67.7895 C   0  0  0
  -35.4718    4.0241   67.7187 C   0  0  0
  -35.5219    3.3861   66.8463 H   0  0  0
  -35.0420    3.6683   68.9773 C   0  0  0
  -35.1570    4.8068   69.7290 N   0  0  0
  -34.9471    4.9259   70.7131 H   0  0  0
  -35.5630    5.8853   69.0319 N   0  0  0
  -34.5088    2.3965   69.5514 C   0  0  0
  -33.7381    2.6533   70.2863 H   0  0  0
  -33.8575    1.5258   68.4849 C   0  0  0
  -34.5951    1.1447   67.7735 H   0  0  0
  -33.3572    0.6720   68.9435 H   0  0  0
  -33.1084    2.0772   67.9153 H   0  0  0
  -35.5948    1.6049   70.2686 C   0  0  0
  -35.1660    0.7465   70.7943 H   0  0  0
  -36.3362    1.2182   69.5634 H   0  0  0
  -36.1188    2.2212   71.0060 H   0  0  0
  2  1  1
  2  3  1
  2 10  2
  3  4  2
  3 12  1
  4  5  1
  4  6  1
  6  7  1
  6  8  2
  8  9  1
  8 10  1
 10 11  1
 12 13  1
 12 14  1
 12 15  1
 15 16  1
 16 17  1
 16 24  2
 17 18  2
 17 25  1
 18 19  1
 18 20  1
 20 21  1
 20 22  2
 22 23  1
 22 24  1
 25 26  1
 25 27  1
 25 28  1
 28 29  1
 28 30  1
 30 31  2
 30 32  1
 32 33  1
 32 38  2
 33 34  1
 33 35  2
 35 36  1
 35 39  1
 36 37  1
 36 38  1
 39 40  1
 39 41  1
 39 45  1
 41 42  1
 41 43  1
 41 44  1
 45 46  1
 45 47  1
 45 48  1
M  ZZC   1 h1
M  ZZC   2 c20
M  ZZC   3 c15
M  ZZC   4 c16
M  ZZC   5 h5
M  ZZC   6 c17
M  ZZC   7 h4
M  ZZC   8 c18
M  ZZC   9 h3
M  ZZC  10 c19
M  ZZC  11 h2
M  ZZC  12 c14
M  ZZC  13 h6
M  ZZC  14 h7
M  ZZC  15 o2
M  ZZC  16 c13
M  ZZC  17 c9
M  ZZC  18 c10
M  ZZC  19 h10
M  ZZC  20 c11
M  ZZC  21 h9
M  ZZC  22 c12
M  ZZC  23 h8
M  ZZC  24 n4
M  ZZC  25 c8
M  ZZC  26 h11
M  ZZC  27 h12
M  ZZC  28 n3
M  ZZC  29 h13
M  ZZC  30 c7
M  ZZC  31 o1
M  ZZC  32 c6
M  ZZC  33 c5
M  ZZC  34 h14
M  ZZC  35 c4
M  ZZC  36 n2
M  ZZC  37 h22
M  ZZC  38 n1
M  ZZC  39 c2
M  ZZC  40 h18
M  ZZC  41 c3
M  ZZC  42 h15
M  ZZC  43 h16
M  ZZC  44 h17
M  ZZC  45 c1
M  ZZC  46 h19
M  ZZC  47 h20
M  ZZC  48 h21
M  ZZM   1 5
M  ZZI   1 1
M  ZZM   2 37
M  ZZI   2 125
M  ZZM   3 37
M  ZZI   3 124
M  ZZM   4 37
M  ZZI   4 125
M  ZZM   5 5
M  ZZI   5 1
M  ZZM   6 37
M  ZZI   6 125
M  ZZM   7 5
M  ZZI   7 1
M  ZZM   8 37
M  ZZI   8 125
M  ZZM   9 5
M  ZZI   9 1
M  ZZM  10 37
M  ZZI  10 125
M  ZZM  11 5
M  ZZI  11 1
M  ZZM  12 1
M  ZZI  12 112
M  ZZM  13 5
M  ZZI  13 1
M  ZZM  14 5
M  ZZI  14 1
M  ZZM  15 6
M  ZZI  15 59
M  ZZM  16 37
M  ZZI  16 124
M  ZZM  17 37
M  ZZI  17 124
M  ZZM  18 37
M  ZZI  18 125
M  ZZM  19 5
M  ZZI  19 1
M  ZZM  20 37
M  ZZI  20 125
M  ZZM  21 5
M  ZZI  21 1
M  ZZM  22 37
M  ZZI  22 125
M  ZZM  23 5
M  ZZI  23 1
M  ZZM  24 38
M  ZZI  24 223
M  ZZM  25 1
M  ZZI  25 112
M  ZZM  26 5
M  ZZI  26 1
M  ZZM  27 5
M  ZZI  27 1
M  ZZM  28 10
M  ZZI  28 211
M  ZZM  29 28
M  ZZI  29 11
M  ZZM  30 3
M  ZZI  30 121
M  ZZM  31 7
M  ZZI  31 81
M  ZZM  32 64
M  ZZI  32 105
M  ZZM  33 64
M  ZZI  33 105
M  ZZM  34 5
M  ZZI  34 1
M  ZZM  35 63
M  ZZI  35 104
M  ZZM  36 39
M  ZZI  36 215
M  ZZM  37 23
M  ZZI  37 10
M  ZZM  38 65
M  ZZI  38 207
M  ZZM  39 1
M  ZZI  39 113
M  ZZM  40 5
M  ZZI  40 1
M  ZZM  41 1
M  ZZI  41 111
M  ZZM  42 5
M  ZZI  42 1
M  ZZM  43 5
M  ZZI  43 1
M  ZZM  44 5
M  ZZI  44 1
M  ZZM  45 1
M  ZZI  45 111
M  ZZM  46 5
M  ZZI  46 1
M  ZZM  47 5
M  ZZI  47 1
M  ZZM  48 5
M  ZZI  48 1
M  END
> <NAME>
Z653213378

> <Score>
-27.24526

> <Natom>
48

> <Nflex>
5

> <Hbond>
-2.76867

> <Hphob>
-6.777412

> <VwInt>
-29.369883

> <Eintl>
8.539819

> <Dsolv>
9.663062

> <SolEl>
5.186255

> <mfScore>
-90.837118

> <RecConf>
1

> <molLogP>
2.993762

$$$$
Z32277559
  MOLSOFT 11211612053D

 48 51  0  0  1  0  0  0  0  0999 V2000
  -33.9511    7.8080   65.9643 H   0  0  0
  -33.8397    8.5890   65.3031 N   0  3  0
  -34.1278    8.0425   63.9222 C   0  0  0
  -34.8851    8.6494   63.4236 H   0  0  0
  -34.4856    7.0170   64.0411 H   0  0  0
  -32.8026    8.0673   63.1932 C   0  0  0
  -32.7173    7.2477   62.4779 H   0  0  0
  -32.6665    8.9988   62.6436 H   0  0  0
  -31.7953    7.9990   64.3000 C   0  0  0
  -31.7794    6.9859   64.6986 H   0  0  0
  -30.7868    8.2803   63.9815 H   0  0  0
  -32.3801    8.9389   65.3190 C   0  0  0
  -31.9790    8.7942   66.3277 H   0  0  0
  -32.2732    9.9753   64.9892 H   0  0  0
  -34.7912    9.6864   65.7736 C   0  0  2
  -34.8979   10.3720   64.9269 H   0  0  0
  -34.2570   10.4881   66.9250 C   0  0  0
  -34.4360   10.4829   68.2974 C   0  0  0
  -35.0717    9.8268   68.8723 H   0  0  0
  -33.6243   11.5172   68.8193 C   0  0  0
  -33.5041   11.8100   69.8526 H   0  0  0
  -33.0009   12.0956   67.7421 C   0  0  0
  -32.2915   12.9019   67.6338 H   0  0  0
  -33.3881   11.4894   66.5877 O   0  0  0
  -36.1799    9.0758   66.0860 C   0  0  0
  -36.8364    9.8084   66.5583 H   0  0  0
  -36.6730    8.7728   65.1588 H   0  0  0
  -36.1236    7.9192   66.9728 N   0  0  0
  -35.9621    8.0667   67.9622 H   0  0  0
  -36.2458    6.6317   66.4927 C   0  0  0
  -36.4471    6.3458   65.3228 O   0  0  0
  -36.0078    5.5596   67.4835 C   0  0  0
  -35.2844    4.4577   67.0661 C   0  0  0
  -34.9478    4.3790   66.0360 H   0  0  0
  -34.9471    3.4792   67.9821 C   0  0  0
  -34.1747    2.4037   67.5860 C   0  0  0
  -33.8377    2.3125   66.5576 H   0  0  0
  -33.8057    1.4480   68.5045 C   0  0  0
  -33.1733    0.6313   68.1888 H   0  0  0
  -34.2320    1.5341   69.8121 C   0  0  0
  -33.9470    0.7691   70.5274 H   0  0  0
  -35.0159    2.5970   70.2114 C   0  0  0
  -35.3431    2.6541   71.2454 H   0  0  0
  -35.3663    3.5835   69.3019 C   0  0  0
  -36.1316    4.6709   69.6980 C   0  0  0
  -36.4831    4.7567   70.7224 H   0  0  0
  -36.4516    5.6617   68.7926 C   0  0  0
  -37.0644    6.4923   69.1205 H   0  0  0
  2  1  1
  2  3  1
 15  2  1
  2 12  1
  3  4  1
  3  5  1
  3  6  1
  6  7  1
  6  8  1
  6  9  1
  9 10  1
  9 11  1
  9 12  1
 12 13  1
 12 14  1
 15 16  1
 15 17  1
 15 25  1
 17 18  2
 17 24  1
 18 19  1
 18 20  1
 20 21  1
 20 22  2
 22 23  1
 22 24  1
 25 26  1
 25 27  1
 25 28  1
 28 29  1
 28 30  1
 30 31  2
 30 32  1
 32 33  2
 32 47  1
 33 34  1
 33 35  1
 35 36  2
 35 44  1
 36 37  1
 36 38  1
 38 39  1
 38 40  2
 40 41  1
 40 42  1
 42 43  1
 42 44  2
 44 45  1
 45 46  1
 45 47  2
 47 48  1
M  ZZC   1 h1
M  ZZC   2 n2
M  ZZC   3 c18
M  ZZC   4 h8
M  ZZC   5 h9
M  ZZC   6 c19
M  ZZC   7 h6
M  ZZC   8 h7
M  ZZC   9 c20
M  ZZC  10 h4
M  ZZC  11 h5
M  ZZC  12 c21
M  ZZC  13 h2
M  ZZC  14 h3
M  ZZC  15 c13
M  ZZC  16 h23
M  ZZC  17 c14
M  ZZC  18 c15
M  ZZC  19 h12
M  ZZC  20 c16
M  ZZC  21 h11
M  ZZC  22 c17
M  ZZC  23 h10
M  ZZC  24 o2
M  ZZC  25 c12
M  ZZC  26 h13
M  ZZC  27 h14
M  ZZC  28 n1
M  ZZC  29 h15
M  ZZC  30 c11
M  ZZC  31 o1
M  ZZC  32 c6
M  ZZC  33 c5
M  ZZC  34 h19
M  ZZC  35 c4
M  ZZC  36 c3
M  ZZC  37 h20
M  ZZC  38 c2
M  ZZC  39 h21
M  ZZC  40 c1
M  ZZC  41 h22
M  ZZC  42 c10
M  ZZC  43 h16
M  ZZC  44 c9
M  ZZC  45 c8
M  ZZC  46 h17
M  ZZC  47 c7
M  ZZC  48 h18
M  ZZM   1 36
M  ZZI   1 17
M  ZZM   2 34
M  ZZI   2 231
M  ZZM   3 1
M  ZZI   3 112
M  ZZM   4 5
M  ZZI   4 1
M  ZZM   5 5
M  ZZI   5 1
M  ZZM   6 1
M  ZZI   6 112
M  ZZM   7 5
M  ZZI   7 1
M  ZZM   8 5
M  ZZI   8 1
M  ZZM   9 1
M  ZZI   9 112
M  ZZM  10 5
M  ZZI  10 1
M  ZZM  11 5
M  ZZI  11 1
M  ZZM  12 1
M  ZZI  12 112
M  ZZM  13 5
M  ZZI  13 1
M  ZZM  14 5
M  ZZI  14 1
M  ZZM  15 1
M  ZZI  15 113
M  ZZM  16 5
M  ZZI  16 1
M  ZZM  17 63
M  ZZI  17 104
M  ZZM  18 64
M  ZZI  18 105
M  ZZM  19 5
M  ZZI  19 1
M  ZZM  20 64
M  ZZI  20 105
M  ZZM  21 5
M  ZZI  21 1
M  ZZM  22 63
M  ZZI  22 104
M  ZZM  23 5
M  ZZI  23 1
M  ZZM  24 59
M  ZZI  24 56
M  ZZM  25 1
M  ZZI  25 112
M  ZZM  26 5
M  ZZI  26 1
M  ZZM  27 5
M  ZZI  27 1
M  ZZM  28 10
M  ZZI  28 211
M  ZZM  29 28
M  ZZI  29 11
M  ZZM  30 3
M  ZZI  30 121
M  ZZM  31 7
M  ZZI  31 81
M  ZZM  32 37
M  ZZI  32 124
M  ZZM  33 37
M  ZZI  33 125
M  ZZM  34 5
M  ZZI  34 1
M  ZZM  35 37
M  ZZI  35 124
M  ZZM  36 37
M  ZZI  36 125
M  ZZM  37 5
M  ZZI  37 1
M  ZZM  38 37
M  ZZI  38 125
M  ZZM  39 5
M  ZZI  39 1
M  ZZM  40 37
M  ZZI  40 125
M  ZZM  41 5
M  ZZI  41 1
M  ZZM  42 37
M  ZZI  42 125
M  ZZM  43 5
M  ZZI  43 1
M  ZZM  44 37
M  ZZI  44 124
M  ZZM  45 37
M  ZZI  45 125
M  ZZM  46 5
M  ZZI  46 1
M  ZZM  47 37
M  ZZI  47 125
M  ZZM  48 5
M  ZZI  48 1
M  CHG  1   2   1
M  END
> <NAME>
Z32277559

> <Score>
-26.915434

> <Natom>
48

> <Nflex>
4

> <Hbond>
-3.07321

> <Hphob>
-7.74567

> <VwInt>
-28.788107

> <Eintl>
6.574272

> <Dsolv>
7.504831

> <SolEl>
10.31647

> <mfScore>
-82.474057

> <RecConf>
1

> <molLogP>
3.136952

$$$$
Z220434538
  MOLSOFT 11211612053D

 48 50  0  0  1  0  0  0  0  0999 V2000
  -35.1096    3.1516   69.8013 H   0  0  0
  -35.1249    3.6927   68.8605 C   0  0  0
  -35.2367    5.0685   68.8060 C   0  0  0
  -35.2564    5.7899   67.6213 C   0  0  0
  -35.1698    5.0885   66.4242 C   0  0  0
  -35.1796    5.6028   65.4697 H   0  0  0
  -35.0520    3.7133   66.4660 C   0  0  0
  -34.9726    3.1531   65.5416 H   0  0  0
  -35.0288    3.0280   67.6591 C   0  0  0
  -34.9383    1.9465   67.6521 H   0  0  0
  -35.3585    7.1775   67.9608 C   0  0  0
  -35.4067    7.2373   69.3380 C   0  0  0
  -35.4808    8.0772   70.0148 H   0  0  0
  -35.3429    5.9677   69.8298 N   0  0  0
  -35.3624    5.7242   70.8123 H   0  0  0
  -35.4017    8.3474   67.0367 C   0  0  0
  -35.7201    9.2297   67.6015 H   0  0  0
  -36.1870    8.1771   66.2920 H   0  0  0
  -34.0547    8.6138   66.3438 C   0  0  1
  -33.2606    7.9916   66.7667 H   0  0  0
  -34.1289    8.3061   64.9161 N   0  0  0
  -34.9226    8.6142   64.3704 H   0  0  0
  -33.0382    7.8521   64.2421 C   0  0  0
  -31.9447    7.6555   64.7382 O   0  0  0
  -33.2911    7.6139   62.9383 N   0  0  0
  -32.5463    7.2227   62.3756 H   0  0  0
  -34.1485    7.8830   62.4769 H   0  0  0
  -33.6355   10.0841   66.4773 C   0  0  0
  -33.6532   10.8371   65.5131 O   0  0  0
  -33.2572   10.5481   67.7353 N   0  0  0
  -33.0495   11.9787   67.8912 C   0  0  0
  -33.7735   12.5153   67.2705 H   0  0  0
  -32.0593   12.2205   67.4984 H   0  0  0
  -33.1827   12.4152   69.3357 C   0  0  0
  -34.2068   12.2291   69.6594 H   0  0  0
  -33.0283   13.4895   69.4137 H   0  0  0
  -32.2311   11.6807   70.2693 C   0  0  0
  -32.7151   11.5695   71.2454 H   0  0  0
  -31.3386   12.2897   70.4476 H   0  0  0
  -31.8095   10.3232   69.7062 C   0  0  2
  -30.9557   10.4715   69.0367 H   0  0  0
  -32.9459    9.7152   68.8917 C   0  0  0
  -32.6806    8.7066   68.5683 H   0  0  0
  -33.8538    9.6482   69.4986 H   0  0  0
  -31.3496    9.3945   70.8205 C   0  0  0
  -30.9669    8.4581   70.4056 H   0  0  0
  -32.1692    9.1503   71.5036 H   0  0  0
  -30.5447    9.8528   71.4032 H   0  0  0
  2  1  1
  2  3  1
  2  9  2
  3  4  2
  3 14  1
  4  5  1
  4 11  1
  5  6  1
  5  7  2
  7  8  1
  7  9  1
  9 10  1
 11 12  2
 11 16  1
 12 13  1
 12 14  1
 14 15  1
 16 17  1
 16 18  1
 19 16  1
 19 20  1
 19 21  1
 19 28  1
 21 22  1
 21 23  1
 23 24  2
 23 25  1
 25 26  1
 25 27  1
 28 29  2
 28 30  1
 30 31  1
 30 42  1
 31 32  1
 31 33  1
 31 34  1
 34 35  1
 34 36  1
 34 37  1
 37 38  1
 37 39  1
 40 37  1
 40 41  1
 40 42  1
 40 45  1
 42 43  1
 42 44  1
 45 46  1
 45 47  1
 45 48  1
M  ZZC   1 h4
M  ZZC   2 c17
M  ZZC   3 c12
M  ZZC   4 c13
M  ZZC   5 c14
M  ZZC   6 h7
M  ZZC   7 c15
M  ZZC   8 h6
M  ZZC   9 c16
M  ZZC  10 h5
M  ZZC  11 c10
M  ZZC  12 c11
M  ZZC  13 h8
M  ZZC  14 n2
M  ZZC  15 h22
M  ZZC  16 c9
M  ZZC  17 h10
M  ZZC  18 h9
M  ZZC  19 c8
M  ZZC  20 h23
M  ZZC  21 n3
M  ZZC  22 h3
M  ZZC  23 c18
M  ZZC  24 o2
M  ZZC  25 n4
M  ZZC  26 h1
M  ZZC  27 h2
M  ZZC  28 c7
M  ZZC  29 o1
M  ZZC  30 n1
M  ZZC  31 c5
M  ZZC  32 h13
M  ZZC  33 h14
M  ZZC  34 c4
M  ZZC  35 h15
M  ZZC  36 h16
M  ZZC  37 c3
M  ZZC  38 h17
M  ZZC  39 h18
M  ZZC  40 c2
M  ZZC  41 h24
M  ZZC  42 c6
M  ZZC  43 h11
M  ZZC  44 h12
M  ZZC  45 c1
M  ZZC  46 h19
M  ZZC  47 h20
M  ZZC  48 h21
M  ZZM   1 5
M  ZZI   1 1
M  ZZM   2 37
M  ZZI   2 125
M  ZZM   3 63
M  ZZI   3 104
M  ZZM   4 64
M  ZZI   4 105
M  ZZM   5 37
M  ZZI   5 125
M  ZZM   6 5
M  ZZI   6 1
M  ZZM   7 37
M  ZZI   7 125
M  ZZM   8 5
M  ZZI   8 1
M  ZZM   9 37
M  ZZI   9 125
M  ZZM  10 5
M  ZZI  10 1
M  ZZM  11 64
M  ZZI  11 105
M  ZZM  12 63
M  ZZI  12 104
M  ZZM  13 5
M  ZZI  13 1
M  ZZM  14 39
M  ZZI  14 215
M  ZZM  15 23
M  ZZI  15 10
M  ZZM  16 1
M  ZZI  16 112
M  ZZM  17 5
M  ZZI  17 1
M  ZZM  18 5
M  ZZI  18 1
M  ZZM  19 1
M  ZZI  19 113
M  ZZM  20 5
M  ZZI  20 1
M  ZZM  21 10
M  ZZI  21 211
M  ZZM  22 28
M  ZZI  22 11
M  ZZM  23 3
M  ZZI  23 121
M  ZZM  24 7
M  ZZI  24 81
M  ZZM  25 10
M  ZZI  25 212
M  ZZM  26 28
M  ZZI  26 11
M  ZZM  27 28
M  ZZI  27 11
M  ZZM  28 3
M  ZZI  28 121
M  ZZM  29 7
M  ZZI  29 81
M  ZZM  30 10
M  ZZI  30 192
M  ZZM  31 1
M  ZZI  31 112
M  ZZM  32 5
M  ZZI  32 1
M  ZZM  33 5
M  ZZI  33 1
M  ZZM  34 1
M  ZZI  34 112
M  ZZM  35 5
M  ZZI  35 1
M  ZZM  36 5
M  ZZI  36 1
M  ZZM  37 1
M  ZZI  37 112
M  ZZM  38 5
M  ZZI  38 1
M  ZZM  39 5
M  ZZI  39 1
M  ZZM  40 1
M  ZZI  40 113
M  ZZM  41 5
M  ZZI  41 1
M  ZZM  42 1
M  ZZI  42 112
M  ZZM  43 5
M  ZZI  43 1
M  ZZM  44 5
M  ZZI  44 1
M  ZZM  45 1
M  ZZI  45 111
M  ZZM  46 5
M  ZZI  46 1
M  ZZM  47 5
M  ZZI  47 1
M  ZZM  48 5
M  ZZI  48 1
M  END
> <NAME>
Z220434538

> <Score>
-26.464714

> <Natom>
48

> <Nflex>
6

> <Hbond>
-5.103414

> <Hphob>
-6.324414

> <VwInt>
-28.703902

> <Eintl>
9.996529

> <Dsolv>
14.023797

> <SolEl>
7.985357

> <mfScore>
-82.443244

> <RecConf>
1

> <molLogP>
2.062717

$$$$
Z90723294
  MOLSOFT 11211612053D

 48 50  0  0  0  0  0  0  0  0999 V2000
  -38.0397    5.4158   69.5835 H   0  0  0
  -37.4502    5.1383   70.4622 C   0  0  0
  -37.6703    4.0943   70.7086 H   0  0  0
  -37.8662    6.0025   71.6532 C   0  0  0
  -37.8419    7.0647   71.4091 H   0  0  0
  -38.8927    5.7655   71.9469 H   0  0  0
  -37.0190    5.7842   72.7883 O   0  0  0
  -35.6656    6.1058   72.4406 C   0  0  0
  -35.0485    6.0115   73.3340 H   0  0  0
  -35.6137    7.1486   72.1098 H   0  0  0
  -35.1640    5.1471   71.3737 C   0  0  0
  -35.2052    4.1278   71.7730 H   0  0  0
  -34.1243    5.3852   71.1323 H   0  0  0
  -36.0125    5.2655   70.1792 N   0  0  0
  -35.5863    4.5373   69.0283 C   0  0  0
  -35.0550    3.2551   69.1355 C   0  0  0
  -34.9615    2.7763   70.1030 H   0  0  0
  -34.6562    2.5406   68.0259 C   0  0  0
  -34.2466    1.5416   68.1388 H   0  0  0
  -34.7898    3.0865   66.7713 C   0  0  0
  -34.4778    2.5264   65.8964 H   0  0  0
  -35.3065    4.3546   66.6316 C   0  0  0
  -35.3670    4.7668   65.6325 H   0  0  0
  -35.6911    5.0892   67.7470 C   0  0  0
  -36.0950    6.4414   67.6368 N   0  0  0
  -36.2369    6.9115   68.5227 H   0  0  0
  -36.2697    7.1396   66.4533 C   0  0  0
  -36.3866    6.6437   65.3421 O   0  0  0
  -36.2564    8.6403   66.6415 C   0  0  0
  -36.3253    8.9103   67.6974 H   0  0  0
  -37.1458    9.0388   66.1427 H   0  0  0
  -34.9952    9.2284   66.0128 C   0  0  0
  -35.1609   10.2898   65.8097 H   0  0  0
  -34.8264    8.7531   65.0411 H   0  0  0
  -33.7346    9.0432   66.8671 C   0  0  0
  -32.8645    9.1454   66.2092 H   0  0  0
  -33.6781    8.0436   67.3050 H   0  0  0
  -33.5878   10.0699   67.9000 N   0  0  0
  -33.7203    9.8720   69.2611 C   0  0  0
  -34.0293    8.5383   69.8630 C   0  0  0
  -35.0445    8.2228   69.6065 H   0  0  0
  -33.9653    8.5666   70.9546 H   0  0  0
  -33.3466    7.7788   69.4812 H   0  0  0
  -33.5127   10.9793   69.9744 C   0  0  0
  -33.5551   11.0457   71.0557 H   0  0  0
  -33.1518   12.3271   68.9926 S   0  0  0
  -33.2377   11.3572   67.5424 C   0  0  0
  -33.0131   11.7948   66.4253 O   0  0  0
  2  1  1
  2  3  1
  2  4  1
  2 14  1
  4  5  1
  4  6  1
  4  7  1
  7  8  1
  8  9  1
  8 10  1
  8 11  1
 11 12  1
 11 13  1
 11 14  1
 14 15  1
 15 16  2
 15 24  1
 16 17  1
 16 18  1
 18 19  1
 18 20  2
 20 21  1
 20 22  1
 22 23  1
 22 24  2
 24 25  1
 25 26  1
 25 27  1
 27 28  2
 27 29  1
 29 30  1
 29 31  1
 29 32  1
 32 33  1
 32 34  1
 32 35  1
 35 36  1
 35 37  1
 35 38  1
 38 39  1
 38 47  1
 39 40  1
 39 44  2
 40 41  1
 40 42  1
 40 43  1
 44 45  1
 44 46  1
 46 47  1
 47 48  2
M  ZZC   1 h1
M  ZZC   2 c18
M  ZZC   3 h2
M  ZZC   4 c17
M  ZZC   5 h3
M  ZZC   6 h4
M  ZZC   7 o3
M  ZZC   8 c16
M  ZZC   9 h5
M  ZZC  10 h6
M  ZZC  11 c15
M  ZZC  12 h7
M  ZZC  13 h8
M  ZZC  14 n3
M  ZZC  15 c14
M  ZZC  16 c13
M  ZZC  17 h9
M  ZZC  18 c12
M  ZZC  19 h10
M  ZZC  20 c11
M  ZZC  21 h11
M  ZZC  22 c10
M  ZZC  23 h12
M  ZZC  24 c9
M  ZZC  25 n2
M  ZZC  26 h13
M  ZZC  27 c8
M  ZZC  28 o2
M  ZZC  29 c7
M  ZZC  30 h14
M  ZZC  31 h15
M  ZZC  32 c6
M  ZZC  33 h16
M  ZZC  34 h17
M  ZZC  35 c5
M  ZZC  36 h18
M  ZZC  37 h19
M  ZZC  38 n1
M  ZZC  39 c2
M  ZZC  40 c1
M  ZZC  41 h21
M  ZZC  42 h22
M  ZZC  43 h23
M  ZZC  44 c3
M  ZZC  45 h20
M  ZZC  46 s1
M  ZZC  47 c4
M  ZZC  48 o1
M  ZZM   1 5
M  ZZI   1 1
M  ZZM   2 1
M  ZZI   2 112
M  ZZM   3 5
M  ZZI   3 1
M  ZZM   4 1
M  ZZI   4 112
M  ZZM   5 5
M  ZZI   5 1
M  ZZM   6 5
M  ZZI   6 1
M  ZZM   7 6
M  ZZI   7 65
M  ZZM   8 1
M  ZZI   8 112
M  ZZM   9 5
M  ZZI   9 1
M  ZZM  10 5
M  ZZI  10 1
M  ZZM  11 1
M  ZZI  11 112
M  ZZM  12 5
M  ZZI  12 1
M  ZZM  13 5
M  ZZI  13 1
M  ZZM  14 40
M  ZZI  14 193
M  ZZM  15 37
M  ZZI  15 124
M  ZZM  16 37
M  ZZI  16 125
M  ZZM  17 5
M  ZZI  17 1
M  ZZM  18 37
M  ZZI  18 125
M  ZZM  19 5
M  ZZI  19 1
M  ZZM  20 37
M  ZZI  20 125
M  ZZM  21 5
M  ZZI  21 1
M  ZZM  22 37
M  ZZI  22 125
M  ZZM  23 5
M  ZZI  23 1
M  ZZM  24 37
M  ZZI  24 124
M  ZZM  25 10
M  ZZI  25 191
M  ZZM  26 28
M  ZZI  26 11
M  ZZM  27 3
M  ZZI  27 121
M  ZZM  28 7
M  ZZI  28 81
M  ZZM  29 1
M  ZZI  29 112
M  ZZM  30 5
M  ZZI  30 1
M  ZZM  31 5
M  ZZI  31 1
M  ZZM  32 1
M  ZZI  32 112
M  ZZM  33 5
M  ZZI  33 1
M  ZZM  34 5
M  ZZI  34 1
M  ZZM  35 1
M  ZZI  35 112
M  ZZM  36 5
M  ZZI  36 1
M  ZZM  37 5
M  ZZI  37 1
M  ZZM  38 10
M  ZZI  38 192
M  ZZM  39 2
M  ZZI  39 120
M  ZZM  40 1
M  ZZI  40 111
M  ZZM  41 5
M  ZZI  41 1
M  ZZM  42 5
M  ZZI  42 1
M  ZZM  43 5
M  ZZI  43 1
M  ZZM  44 2
M  ZZI  44 120
M  ZZM  45 5
M  ZZI  45 1
M  ZZM  46 15
M  ZZI  46 240
M  ZZM  47 3
M  ZZI  47 121
M  ZZM  48 7
M  ZZI  48 81
M  END
> <NAME>
Z90723294

> <Score>
-26.450725

> <Natom>
48

> <Nflex>
4

> <Hbond>
-3.003749

> <Hphob>
-5.918008

> <VwInt>
-28.462927

> <Eintl>
7.468801

> <Dsolv>
11.127364

> <SolEl>
4.28974

> <mfScore>
-63.964153

> <RecConf>
1

> <molLogP>
1.988219

$$$$
Z1143014326
  MOLSOFT 11211612053D

 48 49  0  0  1  0  0  0  0  0999 V2000
  -35.7725    3.3907   70.6234 F   0  0  0
  -35.4622    3.4638   69.3188 C   0  0  0
  -34.6979    2.4681   68.7402 C   0  0  0
  -34.2251    1.3154   69.5654 C   0  0  0
  -33.5216    0.7004   68.9992 H   0  0  0
  -35.0770    0.6987   69.8635 H   0  0  0
  -33.7083    1.6729   70.4613 H   0  0  0
  -34.4106    2.5449   67.3867 C   0  0  0
  -33.8336    1.7636   66.9020 H   0  0  0
  -34.8390    3.6271   66.6445 C   0  0  0
  -34.5881    3.6830   65.5925 H   0  0  0
  -35.5506    4.6456   67.2560 C   0  0  0
  -35.9106    4.5417   68.5919 C   0  0  0
  -36.5178    5.2968   69.0818 H   0  0  0
  -35.9041    5.8555   66.4688 C   0  0  0
  -36.4237    5.7144   65.3715 O   0  0  0
  -35.5861    7.0850   67.0312 N   0  0  0
  -34.7495    7.2632   68.2148 C   0  0  0
  -34.3587    6.3100   68.5682 H   0  0  0
  -35.3787    7.6850   69.0070 H   0  0  0
  -33.5739    8.1803   67.9220 C   0  0  0
  -32.8909    7.7100   67.2044 H   0  0  0
  -33.0189    8.3414   68.8524 H   0  0  0
  -34.0790    9.4561   67.3972 N   0  0  0
  -34.8216    9.2406   66.1364 C   0  0  0
  -35.1930   10.1896   65.7384 H   0  0  0
  -34.1647    8.8067   65.3727 H   0  0  0
  -36.0064    8.3149   66.3740 C   0  0  0
  -36.5112    8.0951   65.4300 H   0  0  0
  -36.7382    8.8031   67.0229 H   0  0  0
  -32.9885   10.4209   67.2107 C   0  0  0
  -32.6141   10.4114   66.1814 H   0  0  0
  -32.1192   10.1689   67.8272 H   0  0  0
  -33.5024   11.8022   67.6072 C   0  0  2
  -34.4530   12.0097   67.1115 H   0  0  0
  -32.5792   12.7679   67.1327 O   0  0  0
  -31.8351   12.7777   67.7646 H   0  0  0
  -33.6799   11.9539   69.1158 C   0  0  0
  -34.3805   11.2073   69.5007 H   0  0  0
  -34.0515   12.9571   69.3419 H   0  0  0
  -32.4105   11.7918   69.7607 O   0  0  0
  -32.5248   11.9240   71.1802 C   0  0  0
  -33.1205   11.0950   71.5759 H   0  0  0
  -33.0203   12.8678   71.4286 H   0  0  0
  -31.1302   11.9006   71.7703 C   0  0  0
  -31.1630   11.9942   72.8591 H   0  0  0
  -30.5272   12.7181   71.3643 H   0  0  0
  -30.6158   10.9707   71.5092 H   0  0  0
  2  1  1
  2  3  1
  2 13  2
  3  4  1
  3  8  2
  4  5  1
  4  6  1
  4  7  1
  8  9  1
  8 10  1
 10 11  1
 10 12  2
 12 13  1
 12 15  1
 13 14  1
 15 16  2
 15 17  1
 17 18  1
 17 28  1
 18 19  1
 18 20  1
 18 21  1
 21 22  1
 21 23  1
 21 24  1
 24 25  1
 24 31  1
 25 26  1
 25 27  1
 25 28  1
 28 29  1
 28 30  1
 31 32  1
 31 33  1
 34 31  1
 34 35  1
 34 36  1
 34 38  1
 36 37  1
 38 39  1
 38 40  1
 38 41  1
 41 42  1
 42 43  1
 42 44  1
 42 45  1
 45 46  1
 45 47  1
 45 48  1
M  ZZC   1 f1
M  ZZC   2 c15
M  ZZC   3 c14
M  ZZC   4 c17
M  ZZC   5 h2
M  ZZC   6 h3
M  ZZC   7 h4
M  ZZC   8 c13
M  ZZC   9 h6
M  ZZC  10 c12
M  ZZC  11 h7
M  ZZC  12 c11
M  ZZC  13 c16
M  ZZC  14 h5
M  ZZC  15 c10
M  ZZC  16 o2
M  ZZC  17 n2
M  ZZC  18 c7
M  ZZC  19 h12
M  ZZC  20 h13
M  ZZC  21 c6
M  ZZC  22 h14
M  ZZC  23 h15
M  ZZC  24 n1
M  ZZC  25 c9
M  ZZC  26 h8
M  ZZC  27 h9
M  ZZC  28 c8
M  ZZC  29 h10
M  ZZC  30 h11
M  ZZC  31 c5
M  ZZC  32 h16
M  ZZC  33 h17
M  ZZC  34 c4
M  ZZC  35 h25
M  ZZC  36 o3
M  ZZC  37 h1
M  ZZC  38 c3
M  ZZC  39 h18
M  ZZC  40 h19
M  ZZC  41 o1
M  ZZC  42 c2
M  ZZC  43 h20
M  ZZC  44 h21
M  ZZC  45 c1
M  ZZC  46 h22
M  ZZC  47 h23
M  ZZC  48 h24
M  ZZM   1 11
M  ZZI   1 90
M  ZZM   2 37
M  ZZI   2 124
M  ZZM   3 37
M  ZZI   3 124
M  ZZM   4 1
M  ZZI   4 111
M  ZZM   5 5
M  ZZI   5 1
M  ZZM   6 5
M  ZZI   6 1
M  ZZM   7 5
M  ZZI   7 1
M  ZZM   8 37
M  ZZI   8 125
M  ZZM   9 5
M  ZZI   9 1
M  ZZM  10 37
M  ZZI  10 125
M  ZZM  11 5
M  ZZI  11 1
M  ZZM  12 37
M  ZZI  12 124
M  ZZM  13 37
M  ZZI  13 125
M  ZZM  14 5
M  ZZI  14 1
M  ZZM  15 3
M  ZZI  15 121
M  ZZM  16 7
M  ZZI  16 81
M  ZZM  17 10
M  ZZI  17 192
M  ZZM  18 1
M  ZZI  18 112
M  ZZM  19 5
M  ZZI  19 1
M  ZZM  20 5
M  ZZI  20 1
M  ZZM  21 1
M  ZZI  21 112
M  ZZM  22 5
M  ZZI  22 1
M  ZZM  23 5
M  ZZI  23 1
M  ZZM  24 8
M  ZZI  24 216
M  ZZM  25 1
M  ZZI  25 112
M  ZZM  26 5
M  ZZI  26 1
M  ZZM  27 5
M  ZZI  27 1
M  ZZM  28 1
M  ZZI  28 112
M  ZZM  29 5
M  ZZI  29 1
M  ZZM  30 5
M  ZZI  30 1
M  ZZM  31 1
M  ZZI  31 112
M  ZZM  32 5
M  ZZI  32 1
M  ZZM  33 5
M  ZZI  33 1
M  ZZM  34 1
M  ZZI  34 113
M  ZZM  35 5
M  ZZI  35 1
M  ZZM  36 6
M  ZZI  36 60
M  ZZM  37 21
M  ZZI  37 20
M  ZZM  38 1
M  ZZI  38 112
M  ZZM  39 5
M  ZZI  39 1
M  ZZM  40 5
M  ZZI  40 1
M  ZZM  41 6
M  ZZI  41 65
M  ZZM  42 1
M  ZZI  42 112
M  ZZM  43 5
M  ZZI  43 1
M  ZZM  44 5
M  ZZI  44 1
M  ZZM  45 1
M  ZZI  45 111
M  ZZM  46 5
M  ZZI  46 1
M  ZZM  47 5
M  ZZI  47 1
M  ZZM  48 5
M  ZZI  48 1
M  END
> <NAME>
Z1143014326

> <Score>
-26.420155

> <Natom>
48

> <Nflex>
7

> <Hbond>
-3.690849

> <Hphob>
-6.99891

> <VwInt>
-25.329436

> <Eintl>
6.45117

> <Dsolv>
8.996479

> <SolEl>
3.013697

> <mfScore>
-57.909778

> <RecConf>
1

> <molLogP>
1.416082

$$$$
Z166566898
  MOLSOFT 11211612053D

 48 50  0  0  0  0  0  0  0  0999 V2000
  -34.4242    1.9037   68.5864 F   0  0  0
  -34.8019    3.0944   68.0954 C   0  0  0
  -34.7997    4.1952   68.9227 C   0  0  0
  -34.4997    4.0871   69.9590 H   0  0  0
  -35.1524    5.4348   68.4246 C   0  0  0
  -35.5505    5.5264   67.1048 C   0  0  0
  -35.5718    4.4161   66.2744 C   0  0  0
  -35.8735    4.5018   65.2357 H   0  0  0
  -35.1733    3.1942   66.7733 C   0  0  0
  -35.1505    2.3178   66.1368 H   0  0  0
  -35.9254    6.8433   66.5671 C   0  0  0
  -36.4288    6.9110   65.4540 O   0  0  0
  -35.6604    7.9077   67.4051 N   0  0  0
  -35.2963    7.6984   68.7200 C   0  0  0
  -35.2147    8.6149   69.3268 H   0  0  0
  -35.0712    6.5485   69.2642 N   0  0  0
  -35.8631    9.2699   66.9107 C   0  0  0
  -36.8078    9.3059   66.3563 H   0  0  0
  -35.9322    9.9715   67.7435 H   0  0  0
  -34.7330    9.6416   65.9508 C   0  0  0
  -34.9799    9.8017   64.7644 O   0  0  0
  -33.4260    9.7018   66.4440 N   0  0  0
  -32.3312    9.5504   65.4866 C   0  0  0
  -31.4428   10.0171   65.9156 H   0  0  0
  -32.5855   10.1174   64.5862 H   0  0  0
  -32.0245    8.0990   65.1344 C   0  0  0
  -31.0002    8.0279   64.7540 H   0  0  0
  -32.1082    7.4520   66.0112 H   0  0  0
  -32.9342    7.5738   64.0564 C   0  0  0
  -33.7556    6.6942   64.2486 O   0  0  0
  -32.7399    8.1520   62.8358 N   0  0  0
  -33.3359    7.8819   62.0622 H   0  0  0
  -32.0150    8.8344   62.6515 H   0  0  0
  -33.0588   10.0757   67.7715 C   0  0  0
  -31.9529    9.4956   68.3811 C   0  0  0
  -31.3970    8.7014   67.8959 H   0  0  0
  -31.5514    9.8943   69.6389 C   0  0  0
  -30.6956    9.4201   70.1089 H   0  0  0
  -32.2233   10.9013   70.2979 C   0  0  0
  -33.3063   11.5186   69.6858 C   0  0  0
  -33.8268   12.3476   70.1495 H   0  0  0
  -33.7240   11.0992   68.4359 C   0  0  0
  -34.5356   11.6384   67.9587 H   0  0  0
  -31.7182   11.2325   71.5580 O   0  0  0
  -32.5086   12.1936   72.2631 C   0  0  0
  -32.4916   13.1631   71.7584 H   0  0  0
  -32.0664   12.3301   73.2531 H   0  0  0
  -33.5324   11.8338   72.4034 H   0  0  0
  2  1  1
  2  3  1
  2  9  2
  3  4  1
  3  5  2
  5  6  1
  5 16  1
  6  7  2
  6 11  1
  7  8  1
  7  9  1
  9 10  1
 11 12  2
 11 13  1
 13 14  1
 13 17  1
 14 15  1
 14 16  2
 17 18  1
 17 19  1
 17 20  1
 20 21  2
 20 22  1
 22 23  1
 22 34  1
 23 24  1
 23 25  1
 23 26  1
 26 27  1
 26 28  1
 26 29  1
 29 30  2
 29 31  1
 31 32  1
 31 33  1
 34 35  1
 34 42  2
 35 36  1
 35 37  2
 37 38  1
 37 39  1
 39 40  2
 39 44  1
 40 41  1
 40 42  1
 42 43  1
 44 45  1
 45 46  1
 45 47  1
 45 48  1
M  ZZC   1 f1
M  ZZC   2 c16
M  ZZC   3 c15
M  ZZC   4 h3
M  ZZC   5 c14
M  ZZC   6 c19
M  ZZC   7 c18
M  ZZC   8 h1
M  ZZC   9 c17
M  ZZC  10 h2
M  ZZC  11 c20
M  ZZC  12 o4
M  ZZC  13 n3
M  ZZC  14 c13
M  ZZC  15 h4
M  ZZC  16 n4
M  ZZC  17 c12
M  ZZC  18 h5
M  ZZC  19 h6
M  ZZC  20 c11
M  ZZC  21 o3
M  ZZC  22 n1
M  ZZC  23 c8
M  ZZC  24 h11
M  ZZC  25 h12
M  ZZC  26 c9
M  ZZC  27 h10
M  ZZC  28 h9
M  ZZC  29 c10
M  ZZC  30 o2
M  ZZC  31 n2
M  ZZC  32 h7
M  ZZC  33 h8
M  ZZC  34 c5
M  ZZC  35 c4
M  ZZC  36 h15
M  ZZC  37 c3
M  ZZC  38 h16
M  ZZC  39 c2
M  ZZC  40 c7
M  ZZC  41 h13
M  ZZC  42 c6
M  ZZC  43 h14
M  ZZC  44 o1
M  ZZC  45 c1
M  ZZC  46 h17
M  ZZC  47 h18
M  ZZC  48 h19
M  ZZM   1 11
M  ZZI   1 90
M  ZZM   2 37
M  ZZI   2 124
M  ZZM   3 37
M  ZZI   3 125
M  ZZM   4 5
M  ZZI   4 1
M  ZZM   5 37
M  ZZI   5 124
M  ZZM   6 37
M  ZZI   6 124
M  ZZM   7 37
M  ZZI   7 125
M  ZZM   8 5
M  ZZI   8 1
M  ZZM   9 37
M  ZZI   9 125
M  ZZM  10 5
M  ZZI  10 1
M  ZZM  11 3
M  ZZI  11 121
M  ZZM  12 7
M  ZZI  12 81
M  ZZM  13 10
M  ZZI  13 192
M  ZZM  14 3
M  ZZI  14 121
M  ZZM  15 5
M  ZZI  15 1
M  ZZM  16 9
M  ZZI  16 220
M  ZZM  17 1
M  ZZI  17 112
M  ZZM  18 5
M  ZZI  18 1
M  ZZM  19 5
M  ZZI  19 1
M  ZZM  20 3
M  ZZI  20 121
M  ZZM  21 7
M  ZZI  21 81
M  ZZM  22 10
M  ZZI  22 192
M  ZZM  23 1
M  ZZI  23 112
M  ZZM  24 5
M  ZZI  24 1
M  ZZM  25 5
M  ZZI  25 1
M  ZZM  26 1
M  ZZI  26 112
M  ZZM  27 5
M  ZZI  27 1
M  ZZM  28 5
M  ZZI  28 1
M  ZZM  29 3
M  ZZI  29 121
M  ZZM  30 7
M  ZZI  30 81
M  ZZM  31 10
M  ZZI  31 212
M  ZZM  32 28
M  ZZI  32 11
M  ZZM  33 28
M  ZZI  33 11
M  ZZM  34 37
M  ZZI  34 124
M  ZZM  35 37
M  ZZI  35 125
M  ZZM  36 5
M  ZZI  36 1
M  ZZM  37 37
M  ZZI  37 125
M  ZZM  38 5
M  ZZI  38 1
M  ZZM  39 37
M  ZZI  39 124
M  ZZM  40 37
M  ZZI  40 125
M  ZZM  41 5
M  ZZI  41 1
M  ZZM  42 37
M  ZZI  42 125
M  ZZM  43 5
M  ZZI  43 1
M  ZZM  44 6
M  ZZI  44 59
M  ZZM  45 1
M  ZZI  45 111
M  ZZM  46 5
M  ZZI  46 1
M  ZZM  47 5
M  ZZI  47 1
M  ZZM  48 5
M  ZZI  48 1
M  END
> <NAME>
Z166566898

> <Score>
-26.360936

> <Natom>
48

> <Nflex>
6

> <Hbond>
-4.28068

> <Hphob>
-6.584278

> <VwInt>
-30.903706

> <Eintl>
9.766512

> <Dsolv>
15.4171

> <SolEl>
7.002319

> <mfScore>
-95.989483

> <RecConf>
1

> <molLogP>
1.102705

$$$$
Z102919462
  MOLSOFT 11211612053D

 48 50  0  0  1  0  0  0  0  0999 V2000
  -36.5404    4.8154   65.6002 H   0  0  0
  -36.9117    5.7164   65.6425 O   0  0  0
  -36.3176    6.4084   66.7447 C   0  0  1
  -36.9828    6.3213   67.6102 H   0  0  0
  -34.9476    5.8061   67.0717 C   0  0  0
  -34.4032    5.6462   66.1357 H   0  0  0
  -34.3663    6.4722   67.7159 H   0  0  0
  -35.0277    4.5313   67.7670 N   0  0  0
  -34.9528    3.3023   67.1645 C   0  0  0
  -34.9040    3.0854   65.9626 O   0  0  0
  -34.9254    2.2443   68.2462 C   0  0  0
  -33.9619    1.7257   68.2766 H   0  0  0
  -35.7690    1.5535   68.1858 H   0  0  0
  -35.0677    3.0769   69.4154 N   0  0  0
  -35.1213    2.7366   70.3682 H   0  0  0
  -35.1226    4.3969   69.1169 C   0  0  0
  -35.2356    5.2916   69.9376 O   0  0  0
  -36.1627    7.8742   66.3514 C   0  0  0
  -37.1348    8.3731   66.2874 H   0  0  0
  -35.7130    7.9380   65.3583 H   0  0  0
  -35.3558    8.5204   67.3440 O   0  0  0
  -34.6437    9.6777   66.8775 C   0  0  2
  -35.3337   10.3069   66.3061 H   0  0  0
  -33.4742    9.2466   66.0094 C   0  0  0
  -32.2813    8.8012   66.5701 C   0  0  0
  -32.1491    8.7693   67.6471 H   0  0  0
  -31.2338    8.3914   65.7745 C   0  0  0
  -30.3034    8.0724   66.2323 H   0  0  0
  -31.3662    8.3736   64.4039 C   0  0  0
  -30.5479    8.0289   63.7785 H   0  0  0
  -32.5426    8.7942   63.8297 C   0  0  0
  -32.6453    8.7612   62.7506 H   0  0  0
  -33.5795    9.2480   64.6213 C   0  0  0
  -34.4926    9.5860   64.1403 H   0  0  0
  -34.2076   10.4404   68.1082 C   0  0  0
  -33.6586   11.7111   68.0054 C   0  0  0
  -33.5822   12.2033   67.0416 H   0  0  0
  -33.1711   12.3587   69.1214 C   0  0  0
  -32.7255   13.3397   69.0066 H   0  0  0
  -33.2176   11.7612   70.3685 C   0  0  0
  -32.6597   12.4609   71.5701 C   0  0  0
  -32.5974   11.7833   72.4266 H   0  0  0
  -33.2988   13.3034   71.8486 H   0  0  0
  -31.6484   12.8249   71.3629 H   0  0  0
  -33.8031   10.5143   70.4852 C   0  0  0
  -33.8699   10.0254   71.4525 H   0  0  0
  -34.2920    9.8651   69.3721 C   0  0  0
  -34.7196    8.8754   69.5040 H   0  0  0
  2  1  1
  3  2  1
  3  4  1
  3  5  1
  3 18  1
  5  6  1
  5  7  1
  5  8  1
  8  9  1
  8 16  1
  9 10  2
  9 11  1
 11 12  1
 11 13  1
 11 14  1
 14 15  1
 14 16  1
 16 17  2
 18 19  1
 18 20  1
 18 21  1
 22 21  1
 22 23  1
 22 24  1
 22 35  1
 24 25  2
 24 33  1
 25 26  1
 25 27  1
 27 28  1
 27 29  2
 29 30  1
 29 31  1
 31 32  1
 31 33  2
 33 34  1
 35 36  1
 35 47  2
 36 37  1
 36 38  2
 38 39  1
 38 40  1
 40 41  1
 40 45  2
 41 42  1
 41 43  1
 41 44  1
 45 46  1
 45 47  1
 47 48  1
M  ZZC   1 h1
M  ZZC   2 o4
M  ZZC   3 c16
M  ZZC   4 h21
M  ZZC   5 c17
M  ZZC   6 h5
M  ZZC   7 h6
M  ZZC   8 n1
M  ZZC   9 c18
M  ZZC  10 o2
M  ZZC  11 c19
M  ZZC  12 h3
M  ZZC  13 h4
M  ZZC  14 n2
M  ZZC  15 h2
M  ZZC  16 c20
M  ZZC  17 o3
M  ZZC  18 c15
M  ZZC  19 h7
M  ZZC  20 h8
M  ZZC  21 o1
M  ZZC  22 c8
M  ZZC  23 h22
M  ZZC  24 c9
M  ZZC  25 c10
M  ZZC  26 h13
M  ZZC  27 c11
M  ZZC  28 h12
M  ZZC  29 c12
M  ZZC  30 h11
M  ZZC  31 c13
M  ZZC  32 h10
M  ZZC  33 c14
M  ZZC  34 h9
M  ZZC  35 c5
M  ZZC  36 c4
M  ZZC  37 h16
M  ZZC  38 c3
M  ZZC  39 h17
M  ZZC  40 c2
M  ZZC  41 c1
M  ZZC  42 h18
M  ZZC  43 h19
M  ZZC  44 h20
M  ZZC  45 c7
M  ZZC  46 h14
M  ZZC  47 c6
M  ZZC  48 h15
M  ZZM   1 21
M  ZZI   1 20
M  ZZM   2 6
M  ZZI   2 60
M  ZZM   3 1
M  ZZI   3 113
M  ZZM   4 5
M  ZZI   4 1
M  ZZM   5 1
M  ZZI   5 112
M  ZZM   6 5
M  ZZI   6 1
M  ZZM   7 5
M  ZZI   7 1
M  ZZM   8 10
M  ZZI   8 192
M  ZZM   9 3
M  ZZI   9 121
M  ZZM  10 7
M  ZZI  10 81
M  ZZM  11 1
M  ZZI  11 112
M  ZZM  12 5
M  ZZI  12 1
M  ZZM  13 5
M  ZZI  13 1
M  ZZM  14 10
M  ZZI  14 211
M  ZZM  15 28
M  ZZI  15 11
M  ZZM  16 3
M  ZZI  16 121
M  ZZM  17 7
M  ZZI  17 81
M  ZZM  18 1
M  ZZI  18 112
M  ZZM  19 5
M  ZZI  19 1
M  ZZM  20 5
M  ZZI  20 1
M  ZZM  21 6
M  ZZI  21 65
M  ZZM  22 1
M  ZZI  22 113
M  ZZM  23 5
M  ZZI  23 1
M  ZZM  24 37
M  ZZI  24 124
M  ZZM  25 37
M  ZZI  25 125
M  ZZM  26 5
M  ZZI  26 1
M  ZZM  27 37
M  ZZI  27 125
M  ZZM  28 5
M  ZZI  28 1
M  ZZM  29 37
M  ZZI  29 125
M  ZZM  30 5
M  ZZI  30 1
M  ZZM  31 37
M  ZZI  31 125
M  ZZM  32 5
M  ZZI  32 1
M  ZZM  33 37
M  ZZI  33 125
M  ZZM  34 5
M  ZZI  34 1
M  ZZM  35 37
M  ZZI  35 124
M  ZZM  36 37
M  ZZI  36 125
M  ZZM  37 5
M  ZZI  37 1
M  ZZM  38 37
M  ZZI  38 125
M  ZZM  39 5
M  ZZI  39 1
M  ZZM  40 37
M  ZZI  40 124
M  ZZM  41 1
M  ZZI  41 111
M  ZZM  42 5
M  ZZI  42 1
M  ZZM  43 5
M  ZZI  43 1
M  ZZM  44 5
M  ZZI  44 1
M  ZZM  45 37
M  ZZI  45 125
M  ZZM  46 5
M  ZZI  46 1
M  ZZM  47 37
M  ZZI  47 125
M  ZZM  48 5
M  ZZI  48 1
M  END
> <NAME>
Z102919462

> <Score>
-26.170564

> <Natom>
48

> <Nflex>
8

> <Hbond>
-1.609424

> <Hphob>
-7.03358

> <VwInt>
-30.694302

> <Eintl>
9.816002

> <Dsolv>
7.01215

> <SolEl>
4.922677

> <mfScore>
-81.737246

> <RecConf>
1

> <molLogP>
1.632964

$$$$
Z213831820
  MOLSOFT 11211612053D

 48 50  0  0  1  0  0  0  0  0999 V2000
  -32.8156   10.8261   66.6963 H   0  0  0
  -33.8627   11.1336   66.5982 C   0  0  0
  -33.9540   12.2219   66.6486 H   0  0  0
  -34.2207   10.8087   65.6187 H   0  0  0
  -34.6772   10.5073   67.5887 O   0  0  0
  -34.0992   10.6390   68.8479 C   0  0  0
  -33.4426   11.7931   69.2490 C   0  0  0
  -33.3700   12.6666   68.6115 H   0  0  0
  -32.8784   11.8473   70.5027 C   0  0  0
  -32.3630   12.7506   70.8146 H   0  0  0
  -32.9705   10.7659   71.3611 C   0  0  0
  -32.3612   10.8587   72.7253 C   0  0  0
  -32.4647    9.9158   73.2697 H   0  0  0
  -32.8610   11.6453   73.2973 H   0  0  0
  -31.2944   11.0924   72.6515 H   0  0  0
  -33.6408    9.6196   70.9568 C   0  0  0
  -33.7237    8.7891   71.6482 H   0  0  0
  -34.2120    9.5498   69.6943 C   0  0  0
  -34.9044    8.4132   69.2070 N   0  0  0
  -35.3594    8.5391   68.3060 H   0  0  0
  -34.9422    7.1654   69.8118 C   0  0  0
  -34.3227    6.8665   70.8241 O   0  0  0
  -35.8568    6.1629   69.1029 C   0  0  2
  -36.7262    6.6909   68.7001 H   0  0  0
  -36.3793    5.1481   70.0980 C   0  0  0
  -37.5115    5.4416   70.8483 C   0  0  0
  -38.0468    6.3708   70.6951 H   0  0  0
  -37.9736    4.5753   71.8160 C   0  0  0
  -38.8505    4.8352   72.3996 H   0  0  0
  -37.3196    3.3865   72.0493 C   0  0  0
  -37.6863    2.7011   72.8069 H   0  0  0
  -36.1942    3.0754   71.3165 C   0  0  0
  -35.6727    2.1415   71.5013 H   0  0  0
  -35.7220    3.9483   70.3562 C   0  0  0
  -34.8170    3.6790   69.8213 H   0  0  0
  -34.9716    5.3649   67.6978 S   0  0  0
  -35.0939    6.5971   66.4242 C   0  0  0
  -36.0532    7.5081   66.5350 N   0  0  0
  -36.1084    8.3814   65.5433 C   0  0  0
  -37.1235    9.3120   65.5751 N   0  0  0
  -37.2719    9.8295   64.7164 H   0  0  0
  -37.9229    9.0454   66.1367 H   0  0  0
  -35.2847    8.4039   64.5087 N   0  0  0
  -34.3706    7.4499   64.4741 C   0  0  0
  -34.2332    6.5190   65.4094 N   0  0  0
  -33.5414    7.4129   63.3672 N   0  0  0
  -32.8684    6.6604   63.2730 H   0  0  0
  -33.7722    8.0117   62.5796 H   0  0  0
  2  1  1
  2  3  1
  2  4  1
  2  5  1
  5  6  1
  6  7  2
  6 18  1
  7  8  1
  7  9  1
  9 10  1
  9 11  2
 11 12  1
 11 16  1
 12 13  1
 12 14  1
 12 15  1
 16 17  1
 16 18  2
 18 19  1
 19 20  1
 19 21  1
 21 22  2
 23 21  1
 23 24  1
 23 25  1
 23 36  1
 25 26  2
 25 34  1
 26 27  1
 26 28  1
 28 29  1
 28 30  2
 30 31  1
 30 32  1
 32 33  1
 32 34  2
 34 35  1
 36 37  1
 37 38  1
 37 45  2
 38 39  2
 39 40  1
 39 43  1
 40 41  1
 40 42  1
 43 44  2
 44 45  1
 44 46  1
 46 47  1
 46 48  1
M  ZZC   1 h1
M  ZZC   2 c19
M  ZZC   3 h2
M  ZZC   4 h3
M  ZZC   5 o2
M  ZZC   6 c5
M  ZZC   7 c4
M  ZZC   8 h15
M  ZZC   9 c3
M  ZZC  10 h16
M  ZZC  11 c2
M  ZZC  12 c1
M  ZZC  13 h17
M  ZZC  14 h18
M  ZZC  15 h19
M  ZZC  16 c7
M  ZZC  17 h14
M  ZZC  18 c6
M  ZZC  19 n1
M  ZZC  20 h13
M  ZZC  21 c8
M  ZZC  22 o1
M  ZZC  23 c9
M  ZZC  24 h20
M  ZZC  25 c10
M  ZZC  26 c11
M  ZZC  27 h12
M  ZZC  28 c12
M  ZZC  29 h11
M  ZZC  30 c13
M  ZZC  31 h10
M  ZZC  32 c14
M  ZZC  33 h9
M  ZZC  34 c15
M  ZZC  35 h8
M  ZZC  36 s1
M  ZZC  37 c16
M  ZZC  38 n2
M  ZZC  39 c17
M  ZZC  40 n6
M  ZZC  41 h4
M  ZZC  42 h5
M  ZZC  43 n3
M  ZZC  44 c18
M  ZZC  45 n4
M  ZZC  46 n5
M  ZZC  47 h6
M  ZZC  48 h7
M  ZZM   1 5
M  ZZI   1 1
M  ZZM   2 1
M  ZZI   2 111
M  ZZM   3 5
M  ZZI   3 1
M  ZZM   4 5
M  ZZI   4 1
M  ZZM   5 6
M  ZZI   5 59
M  ZZM   6 37
M  ZZI   6 124
M  ZZM   7 37
M  ZZI   7 125
M  ZZM   8 5
M  ZZI   8 1
M  ZZM   9 37
M  ZZI   9 125
M  ZZM  10 5
M  ZZI  10 1
M  ZZM  11 37
M  ZZI  11 124
M  ZZM  12 1
M  ZZI  12 111
M  ZZM  13 5
M  ZZI  13 1
M  ZZM  14 5
M  ZZI  14 1
M  ZZM  15 5
M  ZZI  15 1
M  ZZM  16 37
M  ZZI  16 125
M  ZZM  17 5
M  ZZI  17 1
M  ZZM  18 37
M  ZZI  18 124
M  ZZM  19 10
M  ZZI  19 191
M  ZZM  20 28
M  ZZI  20 11
M  ZZM  21 3
M  ZZI  21 121
M  ZZM  22 7
M  ZZI  22 81
M  ZZM  23 1
M  ZZI  23 113
M  ZZM  24 5
M  ZZI  24 1
M  ZZM  25 37
M  ZZI  25 124
M  ZZM  26 37
M  ZZI  26 125
M  ZZM  27 5
M  ZZI  27 1
M  ZZM  28 37
M  ZZI  28 125
M  ZZM  29 5
M  ZZI  29 1
M  ZZM  30 37
M  ZZI  30 125
M  ZZM  31 5
M  ZZI  31 1
M  ZZM  32 37
M  ZZI  32 125
M  ZZM  33 5
M  ZZI  33 1
M  ZZM  34 37
M  ZZI  34 125
M  ZZM  35 5
M  ZZI  35 1
M  ZZM  36 15
M  ZZI  36 240
M  ZZM  37 37
M  ZZI  37 124
M  ZZM  38 38
M  ZZI  38 223
M  ZZM  39 37
M  ZZI  39 124
M  ZZM  40 40
M  ZZI  40 224
M  ZZM  41 28
M  ZZI  41 11
M  ZZM  42 28
M  ZZI  42 11
M  ZZM  43 38
M  ZZI  43 223
M  ZZM  44 37
M  ZZI  44 124
M  ZZM  45 38
M  ZZI  45 223
M  ZZM  46 40
M  ZZI  46 224
M  ZZM  47 28
M  ZZI  47 11
M  ZZM  48 28
M  ZZI  48 11
M  END
> <NAME>
Z213831820

> <Score>
-26.159736

> <Natom>
48

> <Nflex>
3

> <Hbond>
-5.745316

> <Hphob>
-5.427393

> <VwInt>
-29.029962

> <Eintl>
9.359479

> <Dsolv>
18.970804

> <SolEl>
7.59716

> <mfScore>
-81.219094

> <RecConf>
1

> <molLogP>
3.296503

$$$$
Z51351301
  MOLSOFT 11211612053D

 48 51  0  0  1  0  0  0  0  0999 V2000
  -29.6775    8.5360   67.9576 O   0  0  0
  -30.6909    9.1907   68.1627 C   0  0  0
  -30.9767    9.6481   69.5106 C   0  0  0
  -30.4135    9.0626   70.6258 C   0  0  0
  -29.7181    8.2406   70.7213 H   0  0  0
  -30.8964    9.6894   71.7349 N   0  0  0
  -30.6594    9.4470   72.6892 H   0  0  0
  -31.7448   10.6977   71.3726 C   0  0  0
  -32.4422   11.5777   72.1754 C   0  0  0
  -32.3904   11.5369   73.2584 H   0  0  0
  -33.2106   12.5246   71.5399 C   0  0  0
  -33.7740   13.2381   72.1321 H   0  0  0
  -33.2575   12.5925   70.1666 C   0  0  0
  -33.8506   13.3562   69.6804 H   0  0  0
  -32.5577   11.7141   69.3804 C   0  0  0
  -31.7986   10.7195   69.9865 C   0  0  0
  -32.6031   11.8388   68.3063 H   0  0  0
  -31.6343    9.5456   67.0194 C   0  0  1
  -31.5287   10.6116   66.7991 H   0  0  0
  -31.3281    8.7143   65.7780 C   0  0  0
  -31.9550    9.0196   64.9352 H   0  0  0
  -31.5540    7.6612   65.9592 H   0  0  0
  -30.2811    8.7997   65.4726 H   0  0  0
  -32.9638    9.2331   67.4461 O   0  0  0
  -33.9508    9.9248   66.8084 C   0  0  0
  -33.7669   10.8031   65.9746 O   0  0  0
  -35.3085    9.4739   67.2971 C   0  0  1
  -35.7134   10.3030   67.8862 H   0  0  0
  -36.1831    9.1099   66.1077 C   0  0  0
  -35.8792    9.5943   65.1749 H   0  0  0
  -37.2387    9.3259   66.3042 H   0  0  0
  -36.0209    7.6188   65.9918 C   0  0  0
  -36.3574    6.9977   64.9967 O   0  0  0
  -35.5065    7.1382   67.1787 N   0  0  0
  -35.2524    8.2007   68.1254 C   0  0  0
  -36.0493    8.1936   68.8695 H   0  0  0
  -34.2961    8.0460   68.6339 H   0  0  0
  -35.3070    5.7552   67.4907 C   0  0  0
  -35.3309    4.7881   66.4911 C   0  0  0
  -35.4867    5.0561   65.4536 H   0  0  0
  -35.1247    3.4538   66.7830 C   0  0  0
  -35.1371    2.7183   65.9851 H   0  0  0
  -34.9048    3.0459   68.0801 C   0  0  0
  -34.7509    1.9943   68.3023 H   0  0  0
  -34.8937    3.9823   69.0898 C   0  0  0
  -34.7362    3.6746   70.1179 H   0  0  0
  -35.0899    5.3160   68.7966 C   0  0  0
  -35.0999    6.1798   69.8253 F   0  0  0
  2  1  2
  2  3  1
 18  2  1
  3  4  2
  3 16  1
  4  5  1
  4  6  1
  6  7  1
  6  8  1
  8  9  1
  8 16  2
  9 10  1
  9 11  2
 11 12  1
 11 13  1
 13 14  1
 13 15  2
 15 16  1
 15 17  1
 18 19  1
 18 20  1
 18 24  1
 20 21  1
 20 22  1
 20 23  1
 24 25  1
 25 26  2
 27 25  1
 27 28  1
 27 29  1
 27 35  1
 29 30  1
 29 31  1
 29 32  1
 32 33  2
 32 34  1
 34 35  1
 34 38  1
 35 36  1
 35 37  1
 38 39  1
 38 47  2
 39 40  1
 39 41  2
 41 42  1
 41 43  1
 43 44  1
 43 45  2
 45 46  1
 45 47  1
 47 48  1
M  ZZC   1 o1
M  ZZC   2 c3
M  ZZC   3 c4
M  ZZC   4 c5
M  ZZC   5 h13
M  ZZC   6 n1
M  ZZC   7 h18
M  ZZC   8 c6
M  ZZC   9 c11
M  ZZC  10 h9
M  ZZC  11 c10
M  ZZC  12 h10
M  ZZC  13 c9
M  ZZC  14 h11
M  ZZC  15 c8
M  ZZC  16 c7
M  ZZC  17 h12
M  ZZC  18 c2
M  ZZC  19 h19
M  ZZC  20 c1
M  ZZC  21 h14
M  ZZC  22 h15
M  ZZC  23 h16
M  ZZC  24 o2
M  ZZC  25 c12
M  ZZC  26 o3
M  ZZC  27 c13
M  ZZC  28 h17
M  ZZC  29 c14
M  ZZC  30 h7
M  ZZC  31 h8
M  ZZC  32 c15
M  ZZC  33 o4
M  ZZC  34 n2
M  ZZC  35 c16
M  ZZC  36 h5
M  ZZC  37 h6
M  ZZC  38 c17
M  ZZC  39 c18
M  ZZC  40 h4
M  ZZC  41 c19
M  ZZC  42 h3
M  ZZC  43 c20
M  ZZC  44 h2
M  ZZC  45 c21
M  ZZC  46 h1
M  ZZC  47 c22
M  ZZC  48 f1
M  ZZM   1 7
M  ZZI   1 80
M  ZZM   2 3
M  ZZI   2 122
M  ZZM   3 64
M  ZZI   3 105
M  ZZM   4 63
M  ZZI   4 104
M  ZZM   5 5
M  ZZI   5 1
M  ZZM   6 39
M  ZZI   6 215
M  ZZM   7 23
M  ZZI   7 10
M  ZZM   8 63
M  ZZI   8 104
M  ZZM   9 37
M  ZZI   9 125
M  ZZM  10 5
M  ZZI  10 1
M  ZZM  11 37
M  ZZI  11 125
M  ZZM  12 5
M  ZZI  12 1
M  ZZM  13 37
M  ZZI  13 125
M  ZZM  14 5
M  ZZI  14 1
M  ZZM  15 37
M  ZZI  15 125
M  ZZM  16 64
M  ZZI  16 105
M  ZZM  17 5
M  ZZI  17 1
M  ZZM  18 1
M  ZZI  18 113
M  ZZM  19 5
M  ZZI  19 1
M  ZZM  20 1
M  ZZI  20 111
M  ZZM  21 5
M  ZZI  21 1
M  ZZM  22 5
M  ZZI  22 1
M  ZZM  23 5
M  ZZI  23 1
M  ZZM  24 6
M  ZZI  24 61
M  ZZM  25 3
M  ZZI  25 123
M  ZZM  26 7
M  ZZI  26 82
M  ZZM  27 1
M  ZZI  27 113
M  ZZM  28 5
M  ZZI  28 1
M  ZZM  29 1
M  ZZI  29 112
M  ZZM  30 5
M  ZZI  30 1
M  ZZM  31 5
M  ZZI  31 1
M  ZZM  32 3
M  ZZI  32 121
M  ZZM  33 7
M  ZZI  33 81
M  ZZM  34 10
M  ZZI  34 192
M  ZZM  35 1
M  ZZI  35 112
M  ZZM  36 5
M  ZZI  36 1
M  ZZM  37 5
M  ZZI  37 1
M  ZZM  38 37
M  ZZI  38 124
M  ZZM  39 37
M  ZZI  39 125
M  ZZM  40 5
M  ZZI  40 1
M  ZZM  41 37
M  ZZI  41 125
M  ZZM  42 5
M  ZZI  42 1
M  ZZM  43 37
M  ZZI  43 125
M  ZZM  44 5
M  ZZI  44 1
M  ZZM  45 37
M  ZZI  45 125
M  ZZM  46 5
M  ZZI  46 1
M  ZZM  47 37
M  ZZI  47 124
M  ZZM  48 11
M  ZZI  48 90
M  END
> <NAME>
Z51351301

> <Score>
-26.015665

> <Natom>
48

> <Nflex>
3

> <Hbond>
-3.878496

> <Hphob>
-6.7041

> <VwInt>
-26.093331

> <Eintl>
9.913088

> <Dsolv>
11.16003

> <SolEl>
6.381794

> <mfScore>
-72.336799

> <RecConf>
1

> <molLogP>
2.326869

$$$$
Z286979530
  MOLSOFT 11211612053D

 48 51  0  0  1  0  0  0  0  0999 V2000
  -37.5224    8.3597   65.9867 H   0  0  0
  -36.6075    8.1164   65.7529 O   0  0  0
  -36.0315    7.4384   66.8715 C   0  0  2
  -36.3733    7.9329   67.7855 H   0  0  0
  -34.5107    7.5439   66.7829 C   0  0  0
  -34.0214    7.0834   67.6471 H   0  0  0
  -34.1302    7.0390   65.8912 H   0  0  0
  -34.0717    8.9405   66.7322 N   0  0  0
  -33.8862    9.7537   67.8226 C   0  0  0
  -33.4368   10.9432   67.2863 C   0  0  0
  -33.1376   12.0017   68.1259 C   0  0  0
  -32.7758   12.9405   67.7251 H   0  0  0
  -33.3028   11.8222   69.4842 C   0  0  0
  -33.0687   12.6394   70.1587 H   0  0  0
  -33.7563   10.6245   69.9998 C   0  0  0
  -33.8724   10.5182   71.0737 H   0  0  0
  -34.0642    9.5568   69.1808 C   0  0  0
  -34.4237    8.6195   69.5946 H   0  0  0
  -33.3538   10.8727   65.9182 N   0  0  0
  -33.7630    9.6611   65.5982 C   0  0  0
  -33.8782    9.1287   64.2111 C   0  0  0
  -34.4548    8.2015   64.1689 H   0  0  0
  -34.4502    9.8505   63.6241 H   0  0  0
  -32.5145    8.9049   63.5637 C   0  0  0
  -32.6558    8.5095   62.5537 H   0  0  0
  -31.9847    9.8541   63.4626 H   0  0  0
  -31.6469    7.9361   64.3382 C   0  0  0
  -30.7169    7.7427   63.7956 H   0  0  0
  -31.3786    8.3256   65.3244 H   0  0  0
  -32.1719    6.9879   64.4703 H   0  0  0
  -36.5244    5.9930   66.8219 C   0  0  0
  -36.4290    5.5959   65.8062 H   0  0  0
  -37.5927    5.9966   67.0580 H   0  0  0
  -35.8698    5.0762   67.7395 N   0  0  0
  -35.9917    5.1187   69.1090 C   0  0  0
  -36.5715    5.9333   69.8113 O   0  0  0
  -35.2785    3.9479   69.6127 C   0  0  0
  -35.1069    3.5184   70.9103 C   0  0  0
  -35.5139    4.0680   71.7540 H   0  0  0
  -34.3959    2.3414   71.0830 C   0  0  0
  -34.2355    1.9578   72.0860 H   0  0  0
  -33.8892    1.6383   69.9941 C   0  0  0
  -33.3426    0.7176   70.1653 H   0  0  0
  -34.0724    2.0888   68.6967 C   0  0  0
  -33.6830    1.5431   67.8422 H   0  0  0
  -34.7808    3.2609   68.5501 C   0  0  0
  -35.1560    3.9703   67.3323 C   0  0  0
  -34.8774    3.5959   66.2030 O   0  0  0
  2  1  1
  3  2  1
  3  4  1
  3  5  1
  3 31  1
  5  6  1
  5  7  1
  5  8  1
  8  9  1
  8 20  1
  9 10  2
  9 17  1
 10 11  1
 10 19  1
 11 12  1
 11 13  2
 13 14  1
 13 15  1
 15 16  1
 15 17  2
 17 18  1
 19 20  2
 20 21  1
 21 22  1
 21 23  1
 21 24  1
 24 25  1
 24 26  1
 24 27  1
 27 28  1
 27 29  1
 27 30  1
 31 32  1
 31 33  1
 31 34  1
 34 35  1
 34 47  1
 35 36  2
 35 37  1
 37 38  2
 37 46  1
 38 39  1
 38 40  1
 40 41  1
 40 42  2
 42 43  1
 42 44  1
 44 45  1
 44 46  2
 46 47  1
 47 48  2
M  ZZC   1 h1
M  ZZC   2 o3
M  ZZC   3 c12
M  ZZC   4 h21
M  ZZC   5 c11
M  ZZC   6 h8
M  ZZC   7 h9
M  ZZC   8 n2
M  ZZC   9 c10
M  ZZC  10 c5
M  ZZC  11 c6
M  ZZC  12 h13
M  ZZC  13 c7
M  ZZC  14 h12
M  ZZC  15 c8
M  ZZC  16 h11
M  ZZC  17 c9
M  ZZC  18 h10
M  ZZC  19 n1
M  ZZC  20 c4
M  ZZC  21 c3
M  ZZC  22 h14
M  ZZC  23 h15
M  ZZC  24 c2
M  ZZC  25 h16
M  ZZC  26 h17
M  ZZC  27 c1
M  ZZC  28 h18
M  ZZC  29 h19
M  ZZC  30 h20
M  ZZC  31 c13
M  ZZC  32 h6
M  ZZC  33 h7
M  ZZC  34 n3
M  ZZC  35 c14
M  ZZC  36 o1
M  ZZC  37 c15
M  ZZC  38 c16
M  ZZC  39 h5
M  ZZC  40 c17
M  ZZC  41 h4
M  ZZC  42 c18
M  ZZC  43 h3
M  ZZC  44 c19
M  ZZC  45 h2
M  ZZC  46 c20
M  ZZC  47 c21
M  ZZC  48 o2
M  ZZM   1 21
M  ZZI   1 20
M  ZZM   2 6
M  ZZI   2 60
M  ZZM   3 1
M  ZZI   3 113
M  ZZM   4 5
M  ZZI   4 1
M  ZZM   5 1
M  ZZI   5 112
M  ZZM   6 5
M  ZZI   6 1
M  ZZM   7 5
M  ZZI   7 1
M  ZZM   8 39
M  ZZI   8 215
M  ZZM   9 63
M  ZZI   9 104
M  ZZM  10 64
M  ZZI  10 105
M  ZZM  11 37
M  ZZI  11 125
M  ZZM  12 5
M  ZZI  12 1
M  ZZM  13 37
M  ZZI  13 125
M  ZZM  14 5
M  ZZI  14 1
M  ZZM  15 37
M  ZZI  15 125
M  ZZM  16 5
M  ZZI  16 1
M  ZZM  17 37
M  ZZI  17 125
M  ZZM  18 5
M  ZZI  18 1
M  ZZM  19 66
M  ZZI  19 222
M  ZZM  20 63
M  ZZI  20 104
M  ZZM  21 1
M  ZZI  21 112
M  ZZM  22 5
M  ZZI  22 1
M  ZZM  23 5
M  ZZI  23 1
M  ZZM  24 1
M  ZZI  24 112
M  ZZM  25 5
M  ZZI  25 1
M  ZZM  26 5
M  ZZI  26 1
M  ZZM  27 1
M  ZZI  27 111
M  ZZM  28 5
M  ZZI  28 1
M  ZZM  29 5
M  ZZI  29 1
M  ZZM  30 5
M  ZZI  30 1
M  ZZM  31 1
M  ZZI  31 112
M  ZZM  32 5
M  ZZI  32 1
M  ZZM  33 5
M  ZZI  33 1
M  ZZM  34 10
M  ZZI  34 192
M  ZZM  35 3
M  ZZI  35 121
M  ZZM  36 7
M  ZZI  36 81
M  ZZM  37 37
M  ZZI  37 124
M  ZZM  38 37
M  ZZI  38 125
M  ZZM  39 5
M  ZZI  39 1
M  ZZM  40 37
M  ZZI  40 125
M  ZZM  41 5
M  ZZI  41 1
M  ZZM  42 37
M  ZZI  42 125
M  ZZM  43 5
M  ZZI  43 1
M  ZZM  44 37
M  ZZI  44 125
M  ZZM  45 5
M  ZZI  45 1
M  ZZM  46 37
M  ZZI  46 124
M  ZZM  47 3
M  ZZI  47 121
M  ZZM  48 7
M  ZZI  48 81
M  END
> <NAME>
Z286979530

> <Score>
-25.500894

> <Natom>
48

> <Nflex>
7

> <Hbond>
-4.551118

> <Hphob>
-6.447703

> <VwInt>
-28.715339

> <Eintl>
4.583457

> <Dsolv>
12.594772

> <SolEl>
8.185842

> <mfScore>
-117.350613

> <RecConf>
1

> <molLogP>
3.314983

$$$$
Z1489624253
  MOLSOFT 11211612053D

 48 50  0  0  0  0  0  0  0  0999 V2000
  -35.6490    5.8829   69.5767 F   0  0  0
  -35.2913    4.8747   68.7661 C   0  0  0
  -35.4894    4.9555   67.4038 C   0  0  0
  -35.1324    3.9100   66.5732 C   0  0  0
  -35.3115    3.9487   65.5048 H   0  0  0
  -34.5702    2.7819   67.1275 C   0  0  0
  -34.3037    1.9574   66.4761 H   0  0  0
  -34.3732    2.6843   68.4968 C   0  0  0
  -33.8672    1.4068   69.0875 C   0  0  0
  -34.6947    0.7022   69.2037 H   0  0  0
  -33.4176    1.5823   70.0693 H   0  0  0
  -33.0993    0.9669   68.4458 H   0  0  0
  -34.7375    3.7411   69.3167 C   0  0  0
  -34.6151    3.6811   70.3932 H   0  0  0
  -36.4071    6.3442   66.7431 S   0  0  0
  -36.8994    5.9545   65.4391 O   0  0  0
  -37.3205    6.7671   67.7820 O   0  0  0
  -35.2234    7.5466   66.5813 N   0  0  0
  -35.2957    8.3423   67.2206 H   0  0  0
  -34.3104    7.5658   65.5168 C   0  0  0
  -33.3455    8.5794   65.3157 C   0  0  0
  -32.7176    8.2390   64.1336 C   0  0  0
  -31.6095    8.8401   63.3636 C   0  0  0
  -31.4385    8.3016   62.4286 H   0  0  0
  -30.6817    8.8058   63.9403 H   0  0  0
  -31.8370    9.8750   63.1057 H   0  0  0
  -33.3130    7.0817   63.7255 N   0  0  0
  -33.0869    6.5312   62.9052 H   0  0  0
  -34.2689    6.6380   64.5617 N   0  0  0
  -33.1064    9.7294   66.1558 C   0  0  0
  -32.8733   10.8306   65.6789 O   0  0  0
  -33.2132    9.4066   67.4967 N   0  0  0
  -33.2728    8.4271   67.7597 H   0  0  0
  -33.2396   10.3103   68.5805 C   0  0  0
  -33.1708   11.6818   68.4148 C   0  0  0
  -33.0860   12.1408   67.4373 H   0  0  0
  -33.2059   12.4989   69.5204 C   0  0  0
  -33.1516   13.5675   69.3795 H   0  0  0
  -33.3060   11.9711   70.7897 C   0  0  0
  -33.3279   12.6329   71.6507 H   0  0  0
  -33.3943   10.6064   70.9657 C   0  0  0
  -33.4818   10.2261   71.9765 H   0  0  0
  -33.3685    9.7718   69.8542 C   0  0  0
  -33.4635    8.3753   69.9210 O   0  0  0
  -33.7498    7.8816   71.2344 C   0  0  0
  -32.9209    8.0831   71.9208 H   0  0  0
  -33.8579    6.7965   71.1690 H   0  0  0
  -34.6967    8.2840   71.6098 H   0  0  0
  2  1  1
  2  3  2
  2 13  1
  3  4  1
  3 15  1
  4  5  1
  4  6  2
  6  7  1
  6  8  1
  8  9  1
  8 13  2
  9 10  1
  9 11  1
  9 12  1
 13 14  1
 15 16  2
 15 17  2
 15 18  1
 18 19  1
 18 20  1
 20 21  1
 20 29  2
 21 22  2
 21 30  1
 22 23  1
 22 27  1
 23 24  1
 23 25  1
 23 26  1
 27 28  1
 27 29  1
 30 31  2
 30 32  1
 32 33  1
 32 34  1
 34 35  2
 34 43  1
 35 36  1
 35 37  1
 37 38  1
 37 39  2
 39 40  1
 39 41  1
 41 42  1
 41 43  2
 43 44  1
 44 45  1
 45 46  1
 45 47  1
 45 48  1
M  ZZC   1 f1
M  ZZC   2 c6
M  ZZC   3 c5
M  ZZC   4 c4
M  ZZC   5 h13
M  ZZC   6 c3
M  ZZC   7 h14
M  ZZC   8 c2
M  ZZC   9 c1
M  ZZC  10 h15
M  ZZC  11 h16
M  ZZC  12 h17
M  ZZC  13 c7
M  ZZC  14 h12
M  ZZC  15 s1
M  ZZC  16 o1
M  ZZC  17 o2
M  ZZC  18 n1
M  ZZC  19 h01
M  ZZC  20 c8
M  ZZC  21 c9
M  ZZC  22 c10
M  ZZC  23 c11
M  ZZC  24 h10
M  ZZC  25 h11
M  ZZC  26 h9
M  ZZC  27 n2
M  ZZC  28 h18
M  ZZC  29 n3
M  ZZC  30 c12
M  ZZC  31 o3
M  ZZC  32 n4
M  ZZC  33 h8
M  ZZC  34 c13
M  ZZC  35 c14
M  ZZC  36 h7
M  ZZC  37 c15
M  ZZC  38 h6
M  ZZC  39 c16
M  ZZC  40 h5
M  ZZC  41 c17
M  ZZC  42 h4
M  ZZC  43 c18
M  ZZC  44 o4
M  ZZC  45 c19
M  ZZC  46 h1
M  ZZC  47 h2
M  ZZC  48 h3
M  ZZM   1 11
M  ZZI   1 90
M  ZZM   2 37
M  ZZI   2 124
M  ZZM   3 37
M  ZZI   3 124
M  ZZM   4 37
M  ZZI   4 125
M  ZZM   5 5
M  ZZI   5 1
M  ZZM   6 37
M  ZZI   6 125
M  ZZM   7 5
M  ZZI   7 1
M  ZZM   8 37
M  ZZI   8 124
M  ZZM   9 1
M  ZZI   9 111
M  ZZM  10 5
M  ZZI  10 1
M  ZZM  11 5
M  ZZI  11 1
M  ZZM  12 5
M  ZZI  12 1
M  ZZM  13 37
M  ZZI  13 125
M  ZZM  14 5
M  ZZI  14 1
M  ZZM  15 18
M  ZZI  15 250
M  ZZM  16 32
M  ZZI  16 73
M  ZZM  17 32
M  ZZI  17 73
M  ZZM  18 43
M  ZZI  18 196
M  ZZM  19 28
M  ZZI  19 11
M  ZZM  20 64
M  ZZI  20 105
M  ZZM  21 64
M  ZZI  21 105
M  ZZM  22 63
M  ZZI  22 104
M  ZZM  23 1
M  ZZI  23 111
M  ZZM  24 5
M  ZZI  24 1
M  ZZM  25 5
M  ZZI  25 1
M  ZZM  26 5
M  ZZI  26 1
M  ZZM  27 39
M  ZZI  27 215
M  ZZM  28 23
M  ZZI  28 10
M  ZZM  29 65
M  ZZI  29 207
M  ZZM  30 3
M  ZZI  30 121
M  ZZM  31 7
M  ZZI  31 81
M  ZZM  32 10
M  ZZI  32 191
M  ZZM  33 28
M  ZZI  33 11
M  ZZM  34 37
M  ZZI  34 124
M  ZZM  35 37
M  ZZI  35 125
M  ZZM  36 5
M  ZZI  36 1
M  ZZM  37 37
M  ZZI  37 125
M  ZZM  38 5
M  ZZI  38 1
M  ZZM  39 37
M  ZZI  39 125
M  ZZM  40 5
M  ZZI  40 1
M  ZZM  41 37
M  ZZI  41 125
M  ZZM  42 5
M  ZZI  42 1
M  ZZM  43 37
M  ZZI  43 124
M  ZZM  44 6
M  ZZI  44 59
M  ZZM  45 1
M  ZZI  45 111
M  ZZM  46 5
M  ZZI  46 1
M  ZZM  47 5
M  ZZI  47 1
M  ZZM  48 5
M  ZZI  48 1
M  END
> <NAME>
Z1489624253

> <Score>
-25.309882

> <Natom>
48

> <Nflex>
3

> <Hbond>
-2.69231

> <Hphob>
-6.731593

> <VwInt>
-29.532148

> <Eintl>
5.095321

> <Dsolv>
11.192225

> <SolEl>
8.105772

> <mfScore>
-103.689316

> <RecConf>
1

> <molLogP>
2.667845

$$$$
Z635262838
  MOLSOFT 11211612053D

 48 51  0  0  1  0  0  0  0  0999 V2000
  -37.5371    2.9289   72.9865 H   0  0  0
  -37.5154    3.7779   72.3096 C   0  0  0
  -38.2973    4.8873   72.5278 C   0  0  0
  -38.9752    4.9515   73.3657 H   0  0  0
  -38.1914    5.9162   71.6260 C   0  0  0
  -38.7680    6.8272   71.7482 H   0  0  0
  -37.4037    5.8553   70.5495 N   0  0  0
  -36.7090    4.7132   70.4122 C   0  0  0
  -36.7005    3.6667   71.2562 N   0  0  0
  -35.9878    4.5424   69.1598 C   0  0  0
  -36.1043    5.3197   68.0996 N   0  0  0
  -35.4056    4.7872   67.0353 C   0  0  0
  -34.7218    3.6226   67.3200 C   0  0  0
  -34.1268    3.0097   66.6583 H   0  0  0
  -34.9498    3.1866   68.9548 S   0  0  0
  -35.4881    5.4335   65.6984 C   0  0  0
  -34.5427    5.3319   65.1632 H   0  0  0
  -36.2330    4.8829   65.1193 H   0  0  0
  -35.9125    6.8428   65.7636 N   0  0  0
  -36.7144    6.8874   66.3972 H   0  0  0
  -34.8433    7.7252   66.2930 C   0  0  2
  -34.4825    7.2974   67.2339 H   0  0  0
  -35.4134    9.1290   66.5892 C   0  0  0
  -36.4086    9.0560   67.0397 H   0  0  0
  -35.5220    9.7046   65.6630 H   0  0  0
  -34.5942    9.9063   67.5223 N   0  0  0
  -33.7582   10.9522   67.1957 C   0  0  0
  -33.4696   11.3582   66.0810 O   0  0  0
  -33.2608   11.5559   68.4768 C   0  0  0
  -32.2175   11.8692   68.3868 H   0  0  0
  -33.8872   12.4177   68.7305 H   0  0  0
  -33.4358   10.4218   69.4662 C   0  0  0
  -32.5511    9.7750   69.4387 H   0  0  0
  -33.5667   10.7654   70.4968 H   0  0  0
  -34.6338    9.6679   68.9407 C   0  0  0
  -34.5805    8.5983   69.1653 H   0  0  0
  -35.5685   10.0743   69.3233 H   0  0  0
  -33.6564    7.8712   65.3631 C   0  0  0
  -33.7961    7.8568   63.9805 C   0  0  0
  -34.7673    7.6976   63.5227 H   0  0  0
  -32.7019    8.0481   63.1646 C   0  0  0
  -32.8165    8.0066   62.0884 H   0  0  0
  -31.4600    8.2916   63.7059 C   0  0  0
  -30.6043    8.4490   63.0573 H   0  0  0
  -31.3081    8.3198   65.0736 C   0  0  0
  -30.3311    8.5077   65.5070 H   0  0  0
  -32.3917    8.0946   65.8934 C   0  0  0
  -32.2446    8.1217   66.9686 H   0  0  0
  2  1  1
  2  3  2
  2  9  1
  3  4  1
  3  5  1
  5  6  1
  5  7  2
  7  8  1
  8  9  2
  8 10  1
 10 11  2
 10 15  1
 11 12  1
 12 13  2
 12 16  1
 13 14  1
 13 15  1
 16 17  1
 16 18  1
 16 19  1
 19 20  1
 21 19  1
 21 22  1
 21 23  1
 21 38  1
 23 24  1
 23 25  1
 23 26  1
 26 27  1
 26 35  1
 27 28  2
 27 29  1
 29 30  1
 29 31  1
 29 32  1
 32 33  1
 32 34  1
 32 35  1
 35 36  1
 35 37  1
 38 39  1
 38 47  2
 39 40  1
 39 41  2
 41 42  1
 41 43  1
 43 44  1
 43 45  2
 45 46  1
 45 47  1
 47 48  1
M  ZZC   1 h1
M  ZZC   2 c20
M  ZZC   3 c19
M  ZZC   4 h2
M  ZZC   5 c18
M  ZZC   6 h3
M  ZZC   7 n4
M  ZZC   8 c17
M  ZZC   9 n5
M  ZZC  10 c16
M  ZZC  11 n3
M  ZZC  12 c14
M  ZZC  13 c15
M  ZZC  14 h4
M  ZZC  15 s1
M  ZZC  16 c13
M  ZZC  17 h5
M  ZZC  18 h6
M  ZZC  19 n2
M  ZZC  20 h7
M  ZZC  21 c7
M  ZZC  22 h21
M  ZZC  23 c8
M  ZZC  24 h14
M  ZZC  25 h15
M  ZZC  26 n1
M  ZZC  27 c12
M  ZZC  28 o1
M  ZZC  29 c11
M  ZZC  30 h8
M  ZZC  31 h9
M  ZZC  32 c10
M  ZZC  33 h10
M  ZZC  34 h11
M  ZZC  35 c9
M  ZZC  36 h12
M  ZZC  37 h13
M  ZZC  38 c4
M  ZZC  39 c3
M  ZZC  40 h18
M  ZZC  41 c2
M  ZZC  42 h19
M  ZZC  43 c1
M  ZZC  44 h20
M  ZZC  45 c6
M  ZZC  46 h16
M  ZZC  47 c5
M  ZZC  48 h17
M  ZZM   1 5
M  ZZI   1 1
M  ZZM   2 37
M  ZZI   2 125
M  ZZM   3 37
M  ZZI   3 125
M  ZZM   4 5
M  ZZI   4 1
M  ZZM   5 37
M  ZZI   5 125
M  ZZM   6 5
M  ZZI   6 1
M  ZZM   7 38
M  ZZI   7 223
M  ZZM   8 37
M  ZZI   8 124
M  ZZM   9 38
M  ZZI   9 223
M  ZZM  10 63
M  ZZI  10 104
M  ZZM  11 66
M  ZZI  11 222
M  ZZM  12 64
M  ZZI  12 105
M  ZZM  13 63
M  ZZI  13 104
M  ZZM  14 5
M  ZZI  14 1
M  ZZM  15 44
M  ZZI  15 248
M  ZZM  16 1
M  ZZI  16 112
M  ZZM  17 5
M  ZZI  17 1
M  ZZM  18 5
M  ZZI  18 1
M  ZZM  19 8
M  ZZI  19 214
M  ZZM  20 23
M  ZZI  20 10
M  ZZM  21 1
M  ZZI  21 113
M  ZZM  22 5
M  ZZI  22 1
M  ZZM  23 1
M  ZZI  23 112
M  ZZM  24 5
M  ZZI  24 1
M  ZZM  25 5
M  ZZI  25 1
M  ZZM  26 10
M  ZZI  26 192
M  ZZM  27 3
M  ZZI  27 121
M  ZZM  28 7
M  ZZI  28 81
M  ZZM  29 1
M  ZZI  29 112
M  ZZM  30 5
M  ZZI  30 1
M  ZZM  31 5
M  ZZI  31 1
M  ZZM  32 1
M  ZZI  32 112
M  ZZM  33 5
M  ZZI  33 1
M  ZZM  34 5
M  ZZI  34 1
M  ZZM  35 1
M  ZZI  35 112
M  ZZM  36 5
M  ZZI  36 1
M  ZZM  37 5
M  ZZI  37 1
M  ZZM  38 37
M  ZZI  38 124
M  ZZM  39 37
M  ZZI  39 125
M  ZZM  40 5
M  ZZI  40 1
M  ZZM  41 37
M  ZZI  41 125
M  ZZM  42 5
M  ZZI  42 1
M  ZZM  43 37
M  ZZI  43 125
M  ZZM  44 5
M  ZZI  44 1
M  ZZM  45 37
M  ZZI  45 125
M  ZZM  46 5
M  ZZI  46 1
M  ZZM  47 37
M  ZZI  47 125
M  ZZM  48 5
M  ZZI  48 1
M  END
> <NAME>
Z635262838

> <Score>
-25.265837

> <Natom>
48

> <Nflex>
6

> <Hbond>
-2.729535

> <Hphob>
-7.229734

> <VwInt>
-29.481997

> <Eintl>
6.986319

> <Dsolv>
12.703387

> <SolEl>
4.300402

> <mfScore>
-86.444778

> <RecConf>
1

> <molLogP>
1.538943

$$$$
Z29206156
  MOLSOFT 11211612053D

 48 51  0  0  0  0  0  0  0  0999 V2000
  -34.2732    8.4407   62.7185 H   0  0  0
  -34.2900    7.4820   63.2356 C   0  0  0
  -33.2584    7.1416   63.3636 H   0  0  0
  -34.8081    6.7676   62.5982 H   0  0  0
  -34.9600    7.6108   64.5407 C   0  0  0
  -34.7563    8.5775   65.5322 C   0  0  0
  -33.9669    9.7277   65.6498 C   0  0  0
  -33.3118   10.1321   64.8904 H   0  0  0
  -34.1435   10.2331   66.9343 C   0  0  0
  -33.4905   11.3714   67.4912 C   0  0  0
  -32.7807   12.1058   66.8225 O   0  0  0
  -33.7064   11.5160   68.8403 N   0  0  0
  -34.3697   10.9030   69.3003 H   0  0  0
  -32.9850   12.4928   69.6263 C   0  0  0
  -32.1426   12.8697   69.0426 H   0  0  0
  -33.6698   13.3257   69.7909 H   0  0  0
  -32.5172   11.9325   70.9671 C   0  0  0
  -33.3883   11.6172   71.5506 H   0  0  0
  -32.0281   12.7313   71.5330 H   0  0  0
  -31.5784   10.7808   70.8525 C   0  0  0
  -31.0028   10.0899   69.8034 C   0  0  0
  -31.1249   10.2961   68.7502 H   0  0  0
  -30.2477    9.0419   70.3735 C   0  0  0
  -29.6874    8.2811   69.8520 H   0  0  0
  -30.3730    9.1759   71.7364 C   0  0  0
  -29.9834    8.6282   72.5834 H   0  0  0
  -31.1809   10.2304   72.0369 O   0  0  0
  -35.2542    9.2984   67.9168 S   0  0  0
  -35.4806    8.2405   66.6023 C   0  0  0
  -36.1195    7.0814   66.2730 N   0  0  0
  -35.8933    6.7324   64.9651 N   0  0  0
  -36.8939    6.2175   67.1550 C   0  0  0
  -37.7787    5.8957   66.6013 H   0  0  0
  -37.2350    6.8198   68.0015 H   0  0  0
  -36.0727    5.0379   67.6173 C   0  0  0
  -35.6312    4.0797   66.7149 C   0  0  0
  -35.8561    4.1734   65.6575 H   0  0  0
  -34.9146    2.9825   67.1393 C   0  0  0
  -34.5962    2.2442   66.4098 H   0  0  0
  -34.6232    2.8098   68.4798 C   0  0  0
  -33.9027    1.5804   68.9413 C   0  0  0
  -34.6091    0.7553   69.0747 H   0  0  0
  -33.3923    1.7635   69.8912 H   0  0  0
  -33.1445    1.2847   68.2102 H   0  0  0
  -35.0672    3.7578   69.3864 C   0  0  0
  -34.8676    3.6340   70.4463 H   0  0  0
  -35.7771    4.8632   68.9604 C   0  0  0
  -36.1163    5.5854   69.6970 H   0  0  0
  2  1  1
  2  3  1
  2  4  1
  2  5  1
  5  6  1
  5 31  2
  6  7  1
  6 29  2
  7  8  1
  7  9  2
  9 10  1
  9 28  1
 10 11  2
 10 12  1
 12 13  1
 12 14  1
 14 15  1
 14 16  1
 14 17  1
 17 18  1
 17 19  1
 17 20  1
 20 21  2
 20 27  1
 21 22  1
 21 23  1
 23 24  1
 23 25  2
 25 26  1
 25 27  1
 28 29  1
 29 30  1
 30 31  1
 30 32  1
 32 33  1
 32 34  1
 32 35  1
 35 36  2
 35 47  1
 36 37  1
 36 38  1
 38 39  1
 38 40  2
 40 41  1
 40 45  1
 41 42  1
 41 43  1
 41 44  1
 45 46  1
 45 47  2
 47 48  1
M  ZZC   1 h1
M  ZZC   2 c21
M  ZZC   3 h2
M  ZZC   4 h3
M  ZZC   5 c20
M  ZZC   6 c10
M  ZZC   7 c11
M  ZZC   8 h12
M  ZZC   9 c12
M  ZZC  10 c13
M  ZZC  11 o1
M  ZZC  12 n2
M  ZZC  13 h11
M  ZZC  14 c14
M  ZZC  15 h10
M  ZZC  16 h9
M  ZZC  17 c15
M  ZZC  18 h7
M  ZZC  19 h8
M  ZZC  20 c16
M  ZZC  21 c17
M  ZZC  22 h6
M  ZZC  23 c18
M  ZZC  24 h5
M  ZZC  25 c19
M  ZZC  26 h4
M  ZZC  27 o2
M  ZZC  28 s1
M  ZZC  29 c9
M  ZZC  30 n1
M  ZZC  31 n3
M  ZZC  32 c8
M  ZZC  33 h13
M  ZZC  34 h14
M  ZZC  35 c5
M  ZZC  36 c4
M  ZZC  37 h17
M  ZZC  38 c3
M  ZZC  39 h18
M  ZZC  40 c2
M  ZZC  41 c1
M  ZZC  42 h19
M  ZZC  43 h20
M  ZZC  44 h21
M  ZZC  45 c7
M  ZZC  46 h15
M  ZZC  47 c6
M  ZZC  48 h16
M  ZZM   1 5
M  ZZI   1 1
M  ZZM   2 1
M  ZZI   2 111
M  ZZM   3 5
M  ZZI   3 1
M  ZZM   4 5
M  ZZI   4 1
M  ZZM   5 64
M  ZZI   5 105
M  ZZM   6 64
M  ZZI   6 105
M  ZZM   7 64
M  ZZI   7 105
M  ZZM   8 5
M  ZZI   8 1
M  ZZM   9 63
M  ZZI   9 104
M  ZZM  10 3
M  ZZI  10 121
M  ZZM  11 7
M  ZZI  11 81
M  ZZM  12 10
M  ZZI  12 211
M  ZZM  13 28
M  ZZI  13 11
M  ZZM  14 1
M  ZZI  14 112
M  ZZM  15 5
M  ZZI  15 1
M  ZZM  16 5
M  ZZI  16 1
M  ZZM  17 1
M  ZZI  17 112
M  ZZM  18 5
M  ZZI  18 1
M  ZZM  19 5
M  ZZI  19 1
M  ZZM  20 63
M  ZZI  20 104
M  ZZM  21 64
M  ZZI  21 105
M  ZZM  22 5
M  ZZI  22 1
M  ZZM  23 64
M  ZZI  23 105
M  ZZM  24 5
M  ZZI  24 1
M  ZZM  25 63
M  ZZI  25 104
M  ZZM  26 5
M  ZZI  26 1
M  ZZM  27 59
M  ZZI  27 56
M  ZZM  28 44
M  ZZI  28 248
M  ZZM  29 63
M  ZZI  29 104
M  ZZM  30 39
M  ZZI  30 215
M  ZZM  31 65
M  ZZI  31 207
M  ZZM  32 1
M  ZZI  32 112
M  ZZM  33 5
M  ZZI  33 1
M  ZZM  34 5
M  ZZI  34 1
M  ZZM  35 37
M  ZZI  35 124
M  ZZM  36 37
M  ZZI  36 125
M  ZZM  37 5
M  ZZI  37 1
M  ZZM  38 37
M  ZZI  38 125
M  ZZM  39 5
M  ZZI  39 1
M  ZZM  40 37
M  ZZI  40 124
M  ZZM  41 1
M  ZZI  41 111
M  ZZM  42 5
M  ZZI  42 1
M  ZZM  43 5
M  ZZI  43 1
M  ZZM  44 5
M  ZZI  44 1
M  ZZM  45 37
M  ZZI  45 125
M  ZZM  46 5
M  ZZI  46 1
M  ZZM  47 37
M  ZZI  47 125
M  ZZM  48 5
M  ZZI  48 1
M  END
> <NAME>
Z29206156

> <Score>
-25.224089

> <Natom>
48

> <Nflex>
5

> <Hbond>
-2.84386

> <Hphob>
-8.293469

> <VwInt>
-29.552434

> <Eintl>
7.684691

> <Dsolv>
10.926154

> <SolEl>
8.917152

> <mfScore>
-91.478421

> <RecConf>
1

> <molLogP>
4.305075

$$$$
Z103007352
  MOLSOFT 11211612053D

 48 50  0  0  1  0  0  0  0  0999 V2000
  -34.2986    1.1291   70.3905 Cl  0  0  0
  -34.6004    2.4489   69.3198 C   0  0  0
  -35.0439    3.6551   69.8254 C   0  0  0
  -35.2103    3.7756   70.8914 H   0  0  0
  -35.2719    4.7184   68.9726 C   0  0  0
  -35.6175    5.6526   69.4003 H   0  0  0
  -35.0577    4.5610   67.6069 C   0  0  0
  -34.6357    3.3439   67.1087 C   0  0  0
  -34.4758    3.2203   66.0423 H   0  0  0
  -34.3932    2.2891   67.9656 C   0  0  0
  -34.0392    1.3427   67.5727 H   0  0  0
  -35.2351    5.5677   66.6544 O   0  0  0
  -35.4691    6.8685   67.2150 C   0  0  0
  -34.6577    7.1173   67.9069 H   0  0  0
  -36.4342    6.8657   67.7358 H   0  0  0
  -35.5097    7.8816   66.0701 C   0  0  1
  -34.6200    7.7654   65.4418 H   0  0  0
  -36.6371    7.5897   65.2371 O   0  0  0
  -37.4482    7.8470   65.7170 H   0  0  0
  -35.6430    9.3288   66.5584 C   0  0  0
  -36.4476    9.4032   67.2955 H   0  0  0
  -35.9320    9.9542   65.7081 H   0  0  0
  -34.4303    9.8874   67.1371 N   0  0  0
  -34.1293    9.9131   68.4771 C   0  0  0
  -34.7978    9.4241   69.3773 O   0  0  0
  -32.8158   10.6709   68.6695 C   0  0  0
  -32.5207   10.9594   67.2872 N   0  0  0
  -31.6992   11.4753   66.9927 H   0  0  0
  -33.4756   10.5429   66.4294 C   0  0  0
  -33.4584   10.7657   65.2331 O   0  0  0
  -31.7188    9.7701   69.2539 C   0  0  0
  -30.7400   10.1393   68.9311 H   0  0  0
  -31.7996    8.7532   68.8545 H   0  0  0
  -31.7258    9.7139   70.7725 C   0  0  0
  -30.8329    9.1800   71.1148 H   0  0  0
  -32.5866    9.1279   71.1134 H   0  0  0
  -31.7680   11.1135   71.3803 C   0  0  0
  -30.8842   11.6723   71.0501 H   0  0  0
  -31.7385   11.0431   72.8979 C   0  0  0
  -32.6086   10.5038   73.2845 H   0  0  0
  -31.7461   12.0522   73.3180 H   0  0  0
  -30.8360   10.5352   73.2513 H   0  0  0
  -33.0213   11.8479   70.9180 C   0  0  0
  -33.9135   11.3078   71.2495 H   0  0  0
  -33.0707   12.8406   71.3763 H   0  0  0
  -33.0426   11.9952   69.4087 C   0  0  0
  -32.2618   12.7073   69.1208 H   0  0  0
  -33.9887   12.4542   69.1019 H   0  0  0
  2  1  1
  2  3  1
  2 10  2
  3  4  1
  3  5  2
  5  6  1
  5  7  1
  7  8  2
  7 12  1
  8  9  1
  8 10  1
 10 11  1
 12 13  1
 13 14  1
 13 15  1
 16 13  1
 16 17  1
 16 18  1
 16 20  1
 18 19  1
 20 21  1
 20 22  1
 20 23  1
 23 24  1
 23 29  1
 24 25  2
 24 26  1
 26 27  1
 26 31  1
 26 46  1
 27 28  1
 27 29  1
 29 30  2
 31 32  1
 31 33  1
 31 34  1
 34 35  1
 34 36  1
 34 37  1
 37 38  1
 37 39  1
 37 43  1
 39 40  1
 39 41  1
 39 42  1
 43 44  1
 43 45  1
 43 46  1
 46 47  1
 46 48  1
M  ZZC   1 &Cl1
M  ZZC   2 c16
M  ZZC   3 c15
M  ZZC   4 h4
M  ZZC   5 c14
M  ZZC   6 h5
M  ZZC   7 c13
M  ZZC   8 c18
M  ZZC   9 h2
M  ZZC  10 c17
M  ZZC  11 h3
M  ZZC  12 o3
M  ZZC  13 c12
M  ZZC  14 h6
M  ZZC  15 h7
M  ZZC  16 c11
M  ZZC  17 h23
M  ZZC  18 o4
M  ZZC  19 h1
M  ZZC  20 c10
M  ZZC  21 h8
M  ZZC  22 h9
M  ZZC  23 n1
M  ZZC  24 c8
M  ZZC  25 o1
M  ZZC  26 c5
M  ZZC  27 n2
M  ZZC  28 h10
M  ZZC  29 c9
M  ZZC  30 o2
M  ZZC  31 c4
M  ZZC  32 h15
M  ZZC  33 h16
M  ZZC  34 c3
M  ZZC  35 h17
M  ZZC  36 h18
M  ZZC  37 c2
M  ZZC  38 h19
M  ZZC  39 c1
M  ZZC  40 h20
M  ZZC  41 h21
M  ZZC  42 h22
M  ZZC  43 c7
M  ZZC  44 h11
M  ZZC  45 h12
M  ZZC  46 c6
M  ZZC  47 h13
M  ZZC  48 h14
M  ZZM   1 12
M  ZZI   1 92
M  ZZM   2 37
M  ZZI   2 124
M  ZZM   3 37
M  ZZI   3 125
M  ZZM   4 5
M  ZZI   4 1
M  ZZM   5 37
M  ZZI   5 125
M  ZZM   6 5
M  ZZI   6 1
M  ZZM   7 37
M  ZZI   7 124
M  ZZM   8 37
M  ZZI   8 125
M  ZZM   9 5
M  ZZI   9 1
M  ZZM  10 37
M  ZZI  10 125
M  ZZM  11 5
M  ZZI  11 1
M  ZZM  12 6
M  ZZI  12 59
M  ZZM  13 1
M  ZZI  13 112
M  ZZM  14 5
M  ZZI  14 1
M  ZZM  15 5
M  ZZI  15 1
M  ZZM  16 1
M  ZZI  16 113
M  ZZM  17 5
M  ZZI  17 1
M  ZZM  18 6
M  ZZI  18 60
M  ZZM  19 21
M  ZZI  19 20
M  ZZM  20 1
M  ZZI  20 112
M  ZZM  21 5
M  ZZI  21 1
M  ZZM  22 5
M  ZZI  22 1
M  ZZM  23 10
M  ZZI  23 192
M  ZZM  24 3
M  ZZI  24 121
M  ZZM  25 7
M  ZZI  25 81
M  ZZM  26 1
M  ZZI  26 110
M  ZZM  27 10
M  ZZI  27 211
M  ZZM  28 28
M  ZZI  28 11
M  ZZM  29 3
M  ZZI  29 121
M  ZZM  30 7
M  ZZI  30 81
M  ZZM  31 1
M  ZZI  31 112
M  ZZM  32 5
M  ZZI  32 1
M  ZZM  33 5
M  ZZI  33 1
M  ZZM  34 1
M  ZZI  34 112
M  ZZM  35 5
M  ZZI  35 1
M  ZZM  36 5
M  ZZI  36 1
M  ZZM  37 1
M  ZZI  37 113
M  ZZM  38 5
M  ZZI  38 1
M  ZZM  39 1
M  ZZI  39 111
M  ZZM  40 5
M  ZZI  40 1
M  ZZM  41 5
M  ZZI  41 1
M  ZZM  42 5
M  ZZI  42 1
M  ZZM  43 1
M  ZZI  43 112
M  ZZM  44 5
M  ZZI  44 1
M  ZZM  45 5
M  ZZI  45 1
M  ZZM  46 1
M  ZZI  46 112
M  ZZM  47 5
M  ZZI  47 1
M  ZZM  48 5
M  ZZI  48 1
M  END
> <NAME>
Z103007352

> <Score>
-25.086558

> <Natom>
48

> <Nflex>
6

> <Hbond>
-5.116281

> <Hphob>
-5.969048

> <VwInt>
-27.458924

> <Eintl>
5.265686

> <Dsolv>
15.417022

> <SolEl>
6.292505

> <mfScore>
-88.618548

> <RecConf>
1

> <molLogP>
2.81393

$$$$
Z287372248
  MOLSOFT 11211612053D

 49 52  0  0  1  0  0  0  0  0999 V2000
  -37.6006    8.4686   65.8113 H   0  0  0
  -36.6903    8.1546   65.6590 O   0  0  0
  -36.1734    7.6961   66.9079 C   0  0  1
  -36.4984    8.3867   67.6896 H   0  0  0
  -36.7478    6.3061   67.1735 C   0  0  0
  -36.7004    5.6740   66.2850 H   0  0  0
  -37.8182    6.4055   67.3787 H   0  0  0
  -36.1475    5.7130   68.3338 O   0  0  0
  -35.4832    4.5017   68.0996 C   0  0  0
  -35.2821    3.6831   69.2068 C   0  0  0
  -35.7532    4.0387   70.4661 C   0  0  0
  -36.2929    4.9688   70.6181 H   0  0  0
  -35.5531    3.2092   71.5506 C   0  0  0
  -35.9328    3.4925   72.5272 H   0  0  0
  -34.8752    2.0200   71.3945 C   0  0  0
  -34.7193    1.3672   72.2475 H   0  0  0
  -34.4009    1.6576   70.1514 C   0  0  0
  -33.8685    0.7187   70.0435 H   0  0  0
  -34.6045    2.4799   69.0546 C   0  0  0
  -34.1347    2.1035   67.8076 C   0  0  0
  -33.5987    1.1681   67.6802 H   0  0  0
  -34.3352    2.9174   66.7139 C   0  0  0
  -33.9581    2.6198   65.7416 H   0  0  0
  -34.9967    4.1174   66.8534 C   0  0  0
  -35.0892    4.7412   65.9732 H   0  0  0
  -34.6462    7.7247   66.8602 C   0  0  0
  -34.1951    7.2331   67.7275 H   0  0  0
  -34.2690    7.2267   65.9626 H   0  0  0
  -34.1469    9.1027   66.8575 N   0  0  0
  -33.9243    9.8684   67.9754 C   0  0  0
  -34.0972    9.6264   69.3270 C   0  0  0
  -34.4799    8.6846   69.7080 H   0  0  0
  -33.7486   10.6516   70.1831 C   0  0  0
  -33.8571   10.5077   71.2534 H   0  0  0
  -33.2638   11.8538   69.7084 C   0  0  0
  -32.9991   12.6374   70.4109 H   0  0  0
  -33.1045   12.0791   68.3560 C   0  0  0
  -32.7181   13.0210   67.9874 H   0  0  0
  -33.4400   11.0621   67.4797 C   0  0  0
  -33.3658   11.0384   66.1093 N   0  0  0
  -33.8125    9.8522   65.7508 C   0  0  0
  -33.9546    9.3812   64.3505 C   0  0  0
  -33.9122   10.2337   63.6735 H   0  0  0
  -34.9138    8.8875   64.1818 H   0  0  0
  -32.8344    8.4304   64.0065 C   0  0  0
  -31.8542    8.2353   64.7071 O   0  0  0
  -33.0258    7.7772   62.8232 N   0  0  0
  -32.3406    7.0965   62.5222 H   0  0  0
  -33.7990    7.9617   62.1951 H   0  0  0
  2  1  1
  3  2  1
  3  4  1
  3  5  1
  3 26  1
  5  6  1
  5  7  1
  5  8  1
  8  9  1
  9 10  1
  9 24  2
 10 11  2
 10 19  1
 11 12  1
 11 13  1
 13 14  1
 13 15  2
 15 16  1
 15 17  1
 17 18  1
 17 19  2
 19 20  1
 20 21  1
 20 22  2
 22 23  1
 22 24  1
 24 25  1
 26 27  1
 26 28  1
 26 29  1
 29 30  1
 29 41  1
 30 31  1
 30 39  2
 31 32  1
 31 33  2
 33 34  1
 33 35  1
 35 36  1
 35 37  2
 37 38  1
 37 39  1
 39 40  1
 40 41  2
 41 42  1
 42 43  1
 42 44  1
 42 45  1
 45 46  2
 45 47  1
 47 48  1
 47 49  1
M  ZZC   1 h1
M  ZZC   2 o3
M  ZZC   3 c12
M  ZZC   4 h21
M  ZZC   5 c11
M  ZZC   6 h12
M  ZZC   7 h13
M  ZZC   8 o1
M  ZZC   9 c10
M  ZZC  10 c4
M  ZZC  11 c3
M  ZZC  12 h18
M  ZZC  13 c2
M  ZZC  14 h19
M  ZZC  15 c1
M  ZZC  16 h20
M  ZZC  17 c6
M  ZZC  18 h17
M  ZZC  19 c5
M  ZZC  20 c7
M  ZZC  21 h16
M  ZZC  22 c8
M  ZZC  23 h15
M  ZZC  24 c9
M  ZZC  25 h14
M  ZZC  26 c13
M  ZZC  27 h10
M  ZZC  28 h11
M  ZZC  29 n1
M  ZZC  30 c14
M  ZZC  31 c15
M  ZZC  32 h9
M  ZZC  33 c16
M  ZZC  34 h8
M  ZZC  35 c17
M  ZZC  36 h7
M  ZZC  37 c18
M  ZZC  38 h6
M  ZZC  39 c19
M  ZZC  40 n2
M  ZZC  41 c20
M  ZZC  42 c21
M  ZZC  43 h4
M  ZZC  44 h5
M  ZZC  45 c22
M  ZZC  46 o2
M  ZZC  47 n3
M  ZZC  48 h2
M  ZZC  49 h3
M  ZZM   1 21
M  ZZI   1 20
M  ZZM   2 6
M  ZZI   2 60
M  ZZM   3 1
M  ZZI   3 113
M  ZZM   4 5
M  ZZI   4 1
M  ZZM   5 1
M  ZZI   5 112
M  ZZM   6 5
M  ZZI   6 1
M  ZZM   7 5
M  ZZI   7 1
M  ZZM   8 6
M  ZZI   8 59
M  ZZM   9 37
M  ZZI   9 124
M  ZZM  10 37
M  ZZI  10 124
M  ZZM  11 37
M  ZZI  11 125
M  ZZM  12 5
M  ZZI  12 1
M  ZZM  13 37
M  ZZI  13 125
M  ZZM  14 5
M  ZZI  14 1
M  ZZM  15 37
M  ZZI  15 125
M  ZZM  16 5
M  ZZI  16 1
M  ZZM  17 37
M  ZZI  17 125
M  ZZM  18 5
M  ZZI  18 1
M  ZZM  19 37
M  ZZI  19 124
M  ZZM  20 37
M  ZZI  20 125
M  ZZM  21 5
M  ZZI  21 1
M  ZZM  22 37
M  ZZI  22 125
M  ZZM  23 5
M  ZZI  23 1
M  ZZM  24 37
M  ZZI  24 125
M  ZZM  25 5
M  ZZI  25 1
M  ZZM  26 1
M  ZZI  26 112
M  ZZM  27 5
M  ZZI  27 1
M  ZZM  28 5
M  ZZI  28 1
M  ZZM  29 39
M  ZZI  29 215
M  ZZM  30 63
M  ZZI  30 104
M  ZZM  31 37
M  ZZI  31 125
M  ZZM  32 5
M  ZZI  32 1
M  ZZM  33 37
M  ZZI  33 125
M  ZZM  34 5
M  ZZI  34 1
M  ZZM  35 37
M  ZZI  35 125
M  ZZM  36 5
M  ZZI  36 1
M  ZZM  37 37
M  ZZI  37 125
M  ZZM  38 5
M  ZZI  38 1
M  ZZM  39 64
M  ZZI  39 105
M  ZZM  40 66
M  ZZI  40 222
M  ZZM  41 63
M  ZZI  41 104
M  ZZM  42 1
M  ZZI  42 112
M  ZZM  43 5
M  ZZI  43 1
M  ZZM  44 5
M  ZZI  44 1
M  ZZM  45 3
M  ZZI  45 121
M  ZZM  46 7
M  ZZI  46 81
M  ZZM  47 10
M  ZZI  47 212
M  ZZM  48 28
M  ZZI  48 11
M  ZZM  49 28
M  ZZI  49 11
M  END
> <NAME>
Z287372248

> <Score>
-39.177794

> <Natom>
49

> <Nflex>
7

> <Hbond>
-9.044814

> <Hphob>
-5.809159

> <VwInt>
-34.027726

> <Eintl>
9.165569

> <Dsolv>
15.396807

> <SolEl>
8.905822

> <mfScore>
-121.174202

> <RecConf>
1

> <molLogP>
2.641812

$$$$
Z287373314
  MOLSOFT 11211612053D

 49 51  0  0  1  0  0  0  0  0999 V2000
  -37.5474    8.1214   65.7958 H   0  0  0
  -36.6488    7.7468   65.7360 O   0  0  0
  -36.0972    7.7688   67.0560 C   0  0  1
  -36.4496    8.6877   67.5331 H   0  0  0
  -36.5795    6.5662   67.8615 C   0  0  0
  -37.6692    6.4712   67.8071 H   0  0  0
  -36.2767    6.7270   68.8980 H   0  0  0
  -35.9993    5.3696   67.3228 O   0  0  0
  -35.6295    4.4101   68.2720 C   0  0  0
  -35.9760    4.4648   69.6172 C   0  0  0
  -36.6087    5.2440   70.0249 H   0  0  0
  -35.5354    3.4825   70.4801 C   0  0  0
  -35.8135    3.5336   71.5287 H   0  0  0
  -34.7603    2.4327   70.0198 C   0  0  0
  -34.3027    1.3657   70.9669 C   0  0  0
  -33.5422    0.7307   70.5042 H   0  0  0
  -35.1481    0.7367   71.2616 H   0  0  0
  -33.8593    1.8141   71.8614 H   0  0  0
  -34.4564    2.3596   68.6713 C   0  0  0
  -33.8795    1.5200   68.2936 H   0  0  0
  -34.8790    3.3448   67.7937 C   0  0  0
  -34.5831    3.2111   66.3305 C   0  0  0
  -34.4134    4.1886   65.8743 H   0  0  0
  -35.4194    2.7277   65.8213 H   0  0  0
  -33.6815    2.6151   66.1646 H   0  0  0
  -34.5727    7.7889   66.9660 C   0  0  0
  -34.2071    7.2521   66.0856 H   0  0  0
  -34.1048    7.3418   67.8493 H   0  0  0
  -34.0836    9.1663   66.9033 N   0  0  0
  -33.8399    9.9642   67.9932 C   0  0  0
  -33.9789    9.7588   69.3551 C   0  0  0
  -34.3448    8.8263   69.7729 H   0  0  0
  -33.6184   10.8099   70.1729 C   0  0  0
  -33.7013   10.6976   71.2494 H   0  0  0
  -33.1537   11.9995   69.6516 C   0  0  0
  -32.8766   12.8022   70.3263 H   0  0  0
  -33.0276   12.1875   68.2900 C   0  0  0
  -32.6554   13.1196   67.8847 H   0  0  0
  -33.3785   11.1452   67.4512 C   0  0  0
  -33.3431   11.0836   66.0800 N   0  0  0
  -33.7968    9.8871   65.7668 C   0  0  0
  -33.9899    9.3746   64.3871 C   0  0  0
  -33.9915   10.2075   63.6841 H   0  0  0
  -34.9482    8.8623   64.2764 H   0  0  0
  -32.8685    8.4308   64.0241 C   0  0  0
  -31.8723    8.2484   64.7052 O   0  0  0
  -33.0763    7.7680   62.8487 N   0  0  0
  -32.3885    7.0930   62.5396 H   0  0  0
  -33.8591    7.9463   62.2306 H   0  0  0
  2  1  1
  3  2  1
  3  4  1
  3  5  1
  3 26  1
  5  6  1
  5  7  1
  5  8  1
  8  9  1
  9 10  1
  9 21  2
 10 11  1
 10 12  2
 12 13  1
 12 14  1
 14 15  1
 14 19  2
 15 16  1
 15 17  1
 15 18  1
 19 20  1
 19 21  1
 21 22  1
 22 23  1
 22 24  1
 22 25  1
 26 27  1
 26 28  1
 26 29  1
 29 30  1
 29 41  1
 30 31  1
 30 39  2
 31 32  1
 31 33  2
 33 34  1
 33 35  1
 35 36  1
 35 37  2
 37 38  1
 37 39  1
 39 40  1
 40 41  2
 41 42  1
 42 43  1
 42 44  1
 42 45  1
 45 46  2
 45 47  1
 47 48  1
 47 49  1
M  ZZC   1 h1
M  ZZC   2 o3
M  ZZC   3 c10
M  ZZC   4 h23
M  ZZC   5 c9
M  ZZC   6 h12
M  ZZC   7 h13
M  ZZC   8 o1
M  ZZC   9 c5
M  ZZC  10 c4
M  ZZC  11 h18
M  ZZC  12 c3
M  ZZC  13 h19
M  ZZC  14 c2
M  ZZC  15 c1
M  ZZC  16 h20
M  ZZC  17 h21
M  ZZC  18 h22
M  ZZC  19 c7
M  ZZC  20 h17
M  ZZC  21 c6
M  ZZC  22 c8
M  ZZC  23 h14
M  ZZC  24 h15
M  ZZC  25 h16
M  ZZC  26 c11
M  ZZC  27 h10
M  ZZC  28 h11
M  ZZC  29 n1
M  ZZC  30 c12
M  ZZC  31 c13
M  ZZC  32 h9
M  ZZC  33 c14
M  ZZC  34 h8
M  ZZC  35 c15
M  ZZC  36 h7
M  ZZC  37 c16
M  ZZC  38 h6
M  ZZC  39 c17
M  ZZC  40 n2
M  ZZC  41 c18
M  ZZC  42 c19
M  ZZC  43 h4
M  ZZC  44 h5
M  ZZC  45 c20
M  ZZC  46 o2
M  ZZC  47 n3
M  ZZC  48 h2
M  ZZC  49 h3
M  ZZM   1 21
M  ZZI   1 20
M  ZZM   2 6
M  ZZI   2 60
M  ZZM   3 1
M  ZZI   3 113
M  ZZM   4 5
M  ZZI   4 1
M  ZZM   5 1
M  ZZI   5 112
M  ZZM   6 5
M  ZZI   6 1
M  ZZM   7 5
M  ZZI   7 1
M  ZZM   8 6
M  ZZI   8 59
M  ZZM   9 37
M  ZZI   9 124
M  ZZM  10 37
M  ZZI  10 125
M  ZZM  11 5
M  ZZI  11 1
M  ZZM  12 37
M  ZZI  12 125
M  ZZM  13 5
M  ZZI  13 1
M  ZZM  14 37
M  ZZI  14 124
M  ZZM  15 1
M  ZZI  15 111
M  ZZM  16 5
M  ZZI  16 1
M  ZZM  17 5
M  ZZI  17 1
M  ZZM  18 5
M  ZZI  18 1
M  ZZM  19 37
M  ZZI  19 125
M  ZZM  20 5
M  ZZI  20 1
M  ZZM  21 37
M  ZZI  21 124
M  ZZM  22 1
M  ZZI  22 111
M  ZZM  23 5
M  ZZI  23 1
M  ZZM  24 5
M  ZZI  24 1
M  ZZM  25 5
M  ZZI  25 1
M  ZZM  26 1
M  ZZI  26 112
M  ZZM  27 5
M  ZZI  27 1
M  ZZM  28 5
M  ZZI  28 1
M  ZZM  29 39
M  ZZI  29 215
M  ZZM  30 63
M  ZZI  30 104
M  ZZM  31 37
M  ZZI  31 125
M  ZZM  32 5
M  ZZI  32 1
M  ZZM  33 37
M  ZZI  33 125
M  ZZM  34 5
M  ZZI  34 1
M  ZZM  35 37
M  ZZI  35 125
M  ZZM  36 5
M  ZZI  36 1
M  ZZM  37 37
M  ZZI  37 125
M  ZZM  38 5
M  ZZI  38 1
M  ZZM  39 64
M  ZZI  39 105
M  ZZM  40 66
M  ZZI  40 222
M  ZZM  41 63
M  ZZI  41 104
M  ZZM  42 1
M  ZZI  42 112
M  ZZM  43 5
M  ZZI  43 1
M  ZZM  44 5
M  ZZI  44 1
M  ZZM  45 3
M  ZZI  45 121
M  ZZM  46 7
M  ZZI  46 81
M  ZZM  47 10
M  ZZI  47 212
M  ZZM  48 28
M  ZZI  48 11
M  ZZM  49 28
M  ZZI  49 11
M  END
> <NAME>
Z287373314

> <Score>
-38.710673

> <Natom>
49

> <Nflex>
7

> <Hbond>
-9.044576

> <Hphob>
-6.472364

> <VwInt>
-30.62838

> <Eintl>
7.108621

> <Dsolv>
14.803442

> <SolEl>
5.809676

> <mfScore>
-106.087395

> <RecConf>
1

> <molLogP>
1.996644

$$$$
Z287372980
  MOLSOFT 11211612053D

 49 51  0  0  1  0  0  0  0  0999 V2000
  -37.6170    4.9345   72.2365 H   0  0  0
  -37.1835    5.4510   71.3750 C   0  0  0
  -36.5529    6.2653   71.7452 H   0  0  0
  -38.0154    5.8704   70.8006 H   0  0  0
  -36.3820    4.5063   70.5265 C   0  0  0
  -36.0983    3.2260   70.9751 C   0  0  0
  -36.4543    2.8932   71.9456 H   0  0  0
  -35.3787    2.3479   70.1889 C   0  0  0
  -35.1846    1.3457   70.5592 H   0  0  0
  -34.9140    2.7290   68.9416 C   0  0  0
  -34.1173    1.7740   68.1048 C   0  0  0
  -34.1849    2.0377   67.0445 H   0  0  0
  -33.0663    1.7908   68.4043 H   0  0  0
  -34.5001    0.7549   68.2146 H   0  0  0
  -35.1541    4.0206   68.5036 C   0  0  0
  -34.7288    4.3402   67.5586 H   0  0  0
  -35.9036    4.8930   69.2825 C   0  0  0
  -36.1457    6.2107   68.8960 O   0  0  0
  -36.5847    6.3241   67.5320 C   0  0  0
  -37.6790    6.2838   67.5185 H   0  0  0
  -36.2404    5.5096   66.8898 H   0  0  0
  -36.1134    7.6636   66.9791 C   0  0  2
  -36.4772    8.4781   67.6110 H   0  0  0
  -36.6491    7.8436   65.6671 O   0  0  0
  -37.5633    8.1665   65.7743 H   0  0  0
  -34.5881    7.7374   66.9225 C   0  0  0
  -34.1980    7.2229   66.0397 H   0  0  0
  -34.1186    7.2831   67.8005 H   0  0  0
  -34.1275    9.1271   66.8844 N   0  0  0
  -33.9053    9.9149   67.9865 C   0  0  0
  -34.0658    9.6948   69.3435 C   0  0  0
  -34.4393    8.7572   69.7440 H   0  0  0
  -33.7173   10.7370   70.1786 C   0  0  0
  -33.8160   10.6112   71.2522 H   0  0  0
  -33.2442   11.9334   69.6788 C   0  0  0
  -32.9781   12.7301   70.3656 H   0  0  0
  -33.0976   12.1364   68.3214 C   0  0  0
  -32.7190   13.0734   67.9331 H   0  0  0
  -33.4354   11.1032   67.4656 C   0  0  0
  -33.3764   11.0569   66.0949 N   0  0  0
  -33.8208    9.8626   65.7609 C   0  0  0
  -33.9843    9.3688   64.3707 C   0  0  0
  -33.9724   10.2115   63.6797 H   0  0  0
  -34.9390    8.8572   64.2324 H   0  0  0
  -32.8559    8.4306   64.0168 C   0  0  0
  -31.8683    8.2460   64.7099 O   0  0  0
  -33.0486    7.7745   62.8352 N   0  0  0
  -32.3563    7.1032   62.5288 H   0  0  0
  -33.8228    7.9570   62.2076 H   0  0  0
  2  1  1
  2  3  1
  2  4  1
  2  5  1
  5  6  1
  5 17  2
  6  7  1
  6  8  2
  8  9  1
  8 10  1
 10 11  1
 10 15  2
 11 12  1
 11 13  1
 11 14  1
 15 16  1
 15 17  1
 17 18  1
 18 19  1
 19 20  1
 19 21  1
 22 19  1
 22 23  1
 22 24  1
 22 26  1
 24 25  1
 26 27  1
 26 28  1
 26 29  1
 29 30  1
 29 41  1
 30 31  1
 30 39  2
 31 32  1
 31 33  2
 33 34  1
 33 35  1
 35 36  1
 35 37  2
 37 38  1
 37 39  1
 39 40  1
 40 41  2
 41 42  1
 42 43  1
 42 44  1
 42 45  1
 45 46  2
 45 47  1
 47 48  1
 47 49  1
M  ZZC   1 h1
M  ZZC   2 c20
M  ZZC   3 h2
M  ZZC   4 h3
M  ZZC   5 c5
M  ZZC   6 c4
M  ZZC   7 h18
M  ZZC   8 c3
M  ZZC   9 h19
M  ZZC  10 c2
M  ZZC  11 c1
M  ZZC  12 h20
M  ZZC  13 h21
M  ZZC  14 h22
M  ZZC  15 c7
M  ZZC  16 h17
M  ZZC  17 c6
M  ZZC  18 o1
M  ZZC  19 c8
M  ZZC  20 h15
M  ZZC  21 h16
M  ZZC  22 c9
M  ZZC  23 h23
M  ZZC  24 o3
M  ZZC  25 h4
M  ZZC  26 c10
M  ZZC  27 h13
M  ZZC  28 h14
M  ZZC  29 n1
M  ZZC  30 c11
M  ZZC  31 c12
M  ZZC  32 h12
M  ZZC  33 c13
M  ZZC  34 h11
M  ZZC  35 c14
M  ZZC  36 h10
M  ZZC  37 c15
M  ZZC  38 h9
M  ZZC  39 c16
M  ZZC  40 n2
M  ZZC  41 c17
M  ZZC  42 c18
M  ZZC  43 h7
M  ZZC  44 h8
M  ZZC  45 c19
M  ZZC  46 o2
M  ZZC  47 n3
M  ZZC  48 h5
M  ZZC  49 h6
M  ZZM   1 5
M  ZZI   1 1
M  ZZM   2 1
M  ZZI   2 111
M  ZZM   3 5
M  ZZI   3 1
M  ZZM   4 5
M  ZZI   4 1
M  ZZM   5 37
M  ZZI   5 124
M  ZZM   6 37
M  ZZI   6 125
M  ZZM   7 5
M  ZZI   7 1
M  ZZM   8 37
M  ZZI   8 125
M  ZZM   9 5
M  ZZI   9 1
M  ZZM  10 37
M  ZZI  10 124
M  ZZM  11 1
M  ZZI  11 111
M  ZZM  12 5
M  ZZI  12 1
M  ZZM  13 5
M  ZZI  13 1
M  ZZM  14 5
M  ZZI  14 1
M  ZZM  15 37
M  ZZI  15 125
M  ZZM  16 5
M  ZZI  16 1
M  ZZM  17 37
M  ZZI  17 124
M  ZZM  18 6
M  ZZI  18 59
M  ZZM  19 1
M  ZZI  19 112
M  ZZM  20 5
M  ZZI  20 1
M  ZZM  21 5
M  ZZI  21 1
M  ZZM  22 1
M  ZZI  22 113
M  ZZM  23 5
M  ZZI  23 1
M  ZZM  24 6
M  ZZI  24 60
M  ZZM  25 21
M  ZZI  25 20
M  ZZM  26 1
M  ZZI  26 112
M  ZZM  27 5
M  ZZI  27 1
M  ZZM  28 5
M  ZZI  28 1
M  ZZM  29 39
M  ZZI  29 215
M  ZZM  30 63
M  ZZI  30 104
M  ZZM  31 37
M  ZZI  31 125
M  ZZM  32 5
M  ZZI  32 1
M  ZZM  33 37
M  ZZI  33 125
M  ZZM  34 5
M  ZZI  34 1
M  ZZM  35 37
M  ZZI  35 125
M  ZZM  36 5
M  ZZI  36 1
M  ZZM  37 37
M  ZZI  37 125
M  ZZM  38 5
M  ZZI  38 1
M  ZZM  39 64
M  ZZI  39 105
M  ZZM  40 66
M  ZZI  40 222
M  ZZM  41 63
M  ZZI  41 104
M  ZZM  42 1
M  ZZI  42 112
M  ZZM  43 5
M  ZZI  43 1
M  ZZM  44 5
M  ZZI  44 1
M  ZZM  45 3
M  ZZI  45 121
M  ZZM  46 7
M  ZZI  46 81
M  ZZM  47 10
M  ZZI  47 212
M  ZZM  48 28
M  ZZI  48 11
M  ZZM  49 28
M  ZZI  49 11
M  END
> <NAME>
Z287372980

> <Score>
-38.072761

> <Natom>
49

> <Nflex>
7

> <Hbond>
-9.197408

> <Hphob>
-6.597104

> <VwInt>
-31.440573

> <Eintl>
6.487315

> <Dsolv>
15.397207

> <SolEl>
8.044559

> <mfScore>
-111.594273

> <RecConf>
1

> <molLogP>
1.996644

$$$$
Z56919088
  MOLSOFT 11211612053D

 49 51  0  0  0  0  0  0  0  0999 V2000
  -32.9663   12.0656   66.6805 O   0  0  0
  -33.1570   11.0871   67.3910 C   0  0  0
  -32.8016   11.2231   68.8119 C   0  0  0
  -31.7884   10.4479   69.3533 C   0  0  0
  -31.2889    9.6793   68.7708 H   0  0  0
  -31.3519   10.7237   70.6302 C   0  0  0
  -30.5190   10.1602   71.0398 H   0  0  0
  -31.9248   11.7593   71.3541 C   0  0  0
  -31.3356   12.1753   72.6677 C   0  0  0
  -32.1370   12.4911   73.3397 H   0  0  0
  -30.8330   11.3249   73.1399 H   0  0  0
  -30.3522   13.3129   72.4436 C   0  0  0
  -29.7569   13.5049   73.3363 H   0  0  0
  -30.8733   14.2394   72.1863 H   0  0  0
  -29.6708   13.0808   71.6221 H   0  0  0
  -32.9799   12.4790   70.8179 C   0  0  0
  -33.4414   13.2807   71.3867 H   0  0  0
  -33.4082   12.2301   69.5350 C   0  0  0
  -34.1905   12.8394   69.0925 H   0  0  0
  -33.6971    9.8543   66.8988 C   0  0  0
  -33.9629    9.5685   65.5845 C   0  0  0
  -33.7475   10.4614   64.5853 N   0  0  0
  -34.1081   10.3150   63.6457 H   0  0  0
  -33.3446   11.3944   64.7402 H   0  0  0
  -34.4968    8.2644   65.3997 C   0  0  0
  -34.8215    7.6526   64.1399 C   0  0  0
  -35.7887    6.9190   64.0098 O   0  0  0
  -33.9367    7.9347   63.1381 N   0  0  0
  -34.0910    7.5829   62.2019 H   0  0  0
  -33.0865    8.4635   63.2991 H   0  0  0
  -34.6784    7.5823   66.5910 C   0  0  0
  -34.1539    8.5497   67.9279 S   0  0  0
  -35.1492    6.3022   66.6552 N   0  0  0
  -35.4362    5.8638   65.7793 H   0  0  0
  -35.2131    5.4053   67.7467 C   0  0  0
  -35.1746    4.0458   67.4735 C   0  0  0
  -35.1438    3.7032   66.4436 H   0  0  0
  -35.1456    3.1002   68.4775 C   0  0  0
  -35.1111    2.0546   68.1932 H   0  0  0
  -35.1565    3.5122   69.8011 C   0  0  0
  -35.2176    4.8581   70.0921 C   0  0  0
  -35.2390    5.1850   71.1268 H   0  0  0
  -35.2363    5.7946   69.0781 C   0  0  0
  -35.2905    6.8411   69.3499 H   0  0  0
  -35.1063    2.6553   70.9019 O   0  0  0
  -34.9357    1.2801   70.5475 C   0  0  0
  -35.8122    0.9826   69.9677 H   0  0  0
  -34.8939    0.6432   71.4377 H   0  0  0
  -34.0539    1.1414   69.9125 H   0  0  0
  2  1  2
  2  3  1
  2 20  1
  3  4  1
  3 18  2
  4  5  1
  4  6  2
  6  7  1
  6  8  1
  8  9  1
  8 16  2
  9 10  1
  9 11  1
  9 12  1
 12 13  1
 12 14  1
 12 15  1
 16 17  1
 16 18  1
 18 19  1
 20 21  2
 20 32  1
 21 22  1
 21 25  1
 22 23  1
 22 24  1
 25 26  1
 25 31  2
 26 27  2
 26 28  1
 28 29  1
 28 30  1
 31 32  1
 31 33  1
 33 34  1
 33 35  1
 35 36  2
 35 43  1
 36 37  1
 36 38  1
 38 39  1
 38 40  2
 40 41  1
 40 45  1
 41 42  1
 41 43  2
 43 44  1
 45 46  1
 46 47  1
 46 48  1
 46 49  1
M  ZZC   1 o1
M  ZZC   2 c9
M  ZZC   3 c6
M  ZZC   4 c5
M  ZZC   5 h15
M  ZZC   6 c4
M  ZZC   7 h16
M  ZZC   8 c3
M  ZZC   9 c2
M  ZZC  10 h17
M  ZZC  11 h18
M  ZZC  12 c1
M  ZZC  13 h19
M  ZZC  14 h20
M  ZZC  15 h21
M  ZZC  16 c8
M  ZZC  17 h13
M  ZZC  18 c7
M  ZZC  19 h14
M  ZZC  20 c10
M  ZZC  21 c11
M  ZZC  22 n3
M  ZZC  23 h1
M  ZZC  24 h2
M  ZZC  25 c12
M  ZZC  26 c21
M  ZZC  27 o3
M  ZZC  28 n2
M  ZZC  29 h3
M  ZZC  30 h4
M  ZZC  31 c13
M  ZZC  32 s1
M  ZZC  33 n1
M  ZZC  34 h12
M  ZZC  35 c14
M  ZZC  36 c15
M  ZZC  37 h11
M  ZZC  38 c16
M  ZZC  39 h10
M  ZZC  40 c17
M  ZZC  41 c18
M  ZZC  42 h9
M  ZZC  43 c19
M  ZZC  44 h8
M  ZZC  45 o2
M  ZZC  46 c20
M  ZZC  47 h5
M  ZZC  48 h6
M  ZZC  49 h7
M  ZZM   1 7
M  ZZI   1 80
M  ZZM   2 3
M  ZZI   2 122
M  ZZM   3 37
M  ZZI   3 124
M  ZZM   4 37
M  ZZI   4 125
M  ZZM   5 5
M  ZZI   5 1
M  ZZM   6 37
M  ZZI   6 125
M  ZZM   7 5
M  ZZI   7 1
M  ZZM   8 37
M  ZZI   8 124
M  ZZM   9 1
M  ZZI   9 112
M  ZZM  10 5
M  ZZI  10 1
M  ZZM  11 5
M  ZZI  11 1
M  ZZM  12 1
M  ZZI  12 111
M  ZZM  13 5
M  ZZI  13 1
M  ZZM  14 5
M  ZZI  14 1
M  ZZM  15 5
M  ZZI  15 1
M  ZZM  16 37
M  ZZI  16 125
M  ZZM  17 5
M  ZZI  17 1
M  ZZM  18 37
M  ZZI  18 125
M  ZZM  19 5
M  ZZI  19 1
M  ZZM  20 63
M  ZZI  20 104
M  ZZM  21 64
M  ZZI  21 105
M  ZZM  22 40
M  ZZI  22 224
M  ZZM  23 28
M  ZZI  23 11
M  ZZM  24 28
M  ZZI  24 11
M  ZZM  25 64
M  ZZI  25 105
M  ZZM  26 3
M  ZZI  26 121
M  ZZM  27 7
M  ZZI  27 81
M  ZZM  28 10
M  ZZI  28 212
M  ZZM  29 28
M  ZZI  29 11
M  ZZM  30 28
M  ZZI  30 11
M  ZZM  31 63
M  ZZI  31 104
M  ZZM  32 44
M  ZZI  32 248
M  ZZM  33 40
M  ZZI  33 194
M  ZZM  34 28
M  ZZI  34 11
M  ZZM  35 37
M  ZZI  35 124
M  ZZM  36 37
M  ZZI  36 125
M  ZZM  37 5
M  ZZI  37 1
M  ZZM  38 37
M  ZZI  38 125
M  ZZM  39 5
M  ZZI  39 1
M  ZZM  40 37
M  ZZI  40 124
M  ZZM  41 37
M  ZZI  41 125
M  ZZM  42 5
M  ZZI  42 1
M  ZZM  43 37
M  ZZI  43 125
M  ZZM  44 5
M  ZZI  44 1
M  ZZM  45 6
M  ZZI  45 59
M  ZZM  46 1
M  ZZI  46 111
M  ZZM  47 5
M  ZZI  47 1
M  ZZM  48 5
M  ZZI  48 1
M  ZZM  49 5
M  ZZI  49 1
M  END
> <NAME>
Z56919088

> <Score>
-32.956529

> <Natom>
49

> <Nflex>
1

> <Hbond>
-7.159886

> <Hphob>
-6.685422

> <VwInt>
-27.548976

> <Eintl>
9.13316

> <Dsolv>
14.373908

> <SolEl>
8.796606

> <mfScore>
-96.82779

> <RecConf>
1

> <molLogP>
3.994724

$$$$
Z237852076
  MOLSOFT 11211612053D

 49 51  0  0  1  0  0  0  0  0999 V2000
  -34.1839    8.0425   62.9048 H   0  0  0
  -34.6157    7.8141   63.7495 O   0  0  0
  -34.6514    8.9780   64.5831 C   0  0  2
  -34.8864    9.8306   63.9381 H   0  0  0
  -33.2764    9.1941   65.2164 C   0  0  0
  -32.4939    9.1130   64.4543 H   0  0  0
  -33.0836    8.4054   65.9470 H   0  0  0
  -33.2189   10.5192   65.7771 O   0  0  0
  -32.7747   10.5528   67.0987 C   0  0  0
  -33.2353   11.5999   67.8656 C   0  0  0
  -33.9024   12.3391   67.4341 H   0  0  0
  -32.8600   11.7105   69.1879 C   0  0  0
  -33.2400   12.5564   69.7508 H   0  0  0
  -32.0085   10.7815   69.7846 C   0  0  0
  -31.5310    9.7496   68.9765 C   0  0  0
  -30.8428    9.0078   69.3641 H   0  0  0
  -31.8962    9.6356   67.6501 C   0  0  0
  -31.4615    8.8339   67.0635 H   0  0  0
  -31.5946   10.9277   71.2510 C   0  0  0
  -30.8809    9.6789   71.7948 C   0  0  0
  -30.6427    9.7889   72.8577 H   0  0  0
  -29.9319    9.4895   71.2831 H   0  0  0
  -31.5011    8.7816   71.6948 H   0  0  0
  -30.6333   12.1169   71.3874 C   0  0  0
  -30.2920   12.2418   72.4198 H   0  0  0
  -31.1047   13.0570   71.0869 H   0  0  0
  -29.7453   11.9859   70.7602 H   0  0  0
  -32.8317   11.1730   72.1301 C   0  0  0
  -33.3189   12.1279   71.9107 H   0  0  0
  -32.5679   11.1955   73.1923 H   0  0  0
  -33.5795   10.3845   71.9926 H   0  0  0
  -35.7855    8.8648   65.6264 C   0  0  0
  -35.8923    9.8136   66.1596 H   0  0  0
  -36.7333    8.6730   65.1148 H   0  0  0
  -35.6079    7.7943   66.6122 N   0  0  0
  -35.3121    8.1012   67.9248 C   0  0  0
  -35.2298    9.1798   68.1363 H   0  0  0
  -35.1449    7.2447   68.8771 N   0  0  0
  -35.2432    5.8954   68.5294 C   0  0  0
  -35.5560    5.4789   67.2539 C   0  0  0
  -35.8576    6.4906   66.2392 C   0  0  0
  -36.3300    6.1255   65.1739 O   0  0  0
  -35.5889    4.1298   66.9352 C   0  0  0
  -35.8189    3.7766   65.9341 H   0  0  0
  -35.3130    3.2345   67.9452 C   0  0  0
  -35.3213    2.1655   67.7581 H   0  0  0
  -35.0393    3.7305   69.2028 C   0  0  0
  -34.8295    3.0503   70.0226 H   0  0  0
  -35.0005    5.0314   69.5236 N   0  0  0
  2  1  1
  3  2  1
  3  4  1
  3  5  1
  3 32  1
  5  6  1
  5  7  1
  5  8  1
  8  9  1
  9 10  2
  9 17  1
 10 11  1
 10 12  1
 12 13  1
 12 14  2
 14 15  1
 14 19  1
 15 16  1
 15 17  2
 17 18  1
 19 20  1
 19 24  1
 19 28  1
 20 21  1
 20 22  1
 20 23  1
 24 25  1
 24 26  1
 24 27  1
 28 29  1
 28 30  1
 28 31  1
 32 33  1
 32 34  1
 32 35  1
 35 36  1
 35 41  1
 36 37  1
 36 38  2
 38 39  1
 39 40  1
 39 49  2
 40 41  1
 40 43  2
 41 42  2
 43 44  1
 43 45  1
 45 46  1
 45 47  2
 47 48  1
 47 49  1
M  ZZC   1 h1
M  ZZC   2 o3
M  ZZC   3 c12
M  ZZC   4 h23
M  ZZC   5 c11
M  ZZC   6 h8
M  ZZC   7 h9
M  ZZC   8 o1
M  ZZC   9 c8
M  ZZC  10 c7
M  ZZC  11 h12
M  ZZC  12 c6
M  ZZC  13 h13
M  ZZC  14 c5
M  ZZC  15 c10
M  ZZC  16 h10
M  ZZC  17 c9
M  ZZC  18 h11
M  ZZC  19 c2
M  ZZC  20 c1
M  ZZC  21 h20
M  ZZC  22 h21
M  ZZC  23 h22
M  ZZC  24 c3
M  ZZC  25 h17
M  ZZC  26 h18
M  ZZC  27 h19
M  ZZC  28 c4
M  ZZC  29 h14
M  ZZC  30 h15
M  ZZC  31 h16
M  ZZC  32 c13
M  ZZC  33 h6
M  ZZC  34 h7
M  ZZC  35 n1
M  ZZC  36 c14
M  ZZC  37 h5
M  ZZC  38 n2
M  ZZC  39 c15
M  ZZC  40 c16
M  ZZC  41 c17
M  ZZC  42 o2
M  ZZC  43 c18
M  ZZC  44 h4
M  ZZC  45 c19
M  ZZC  46 h3
M  ZZC  47 c20
M  ZZC  48 h2
M  ZZC  49 n3
M  ZZM   1 21
M  ZZI   1 20
M  ZZM   2 6
M  ZZI   2 60
M  ZZM   3 1
M  ZZI   3 113
M  ZZM   4 5
M  ZZI   4 1
M  ZZM   5 1
M  ZZI   5 112
M  ZZM   6 5
M  ZZI   6 1
M  ZZM   7 5
M  ZZI   7 1
M  ZZM   8 6
M  ZZI   8 59
M  ZZM   9 37
M  ZZI   9 124
M  ZZM  10 37
M  ZZI  10 125
M  ZZM  11 5
M  ZZI  11 1
M  ZZM  12 37
M  ZZI  12 125
M  ZZM  13 5
M  ZZI  13 1
M  ZZM  14 37
M  ZZI  14 124
M  ZZM  15 37
M  ZZI  15 125
M  ZZM  16 5
M  ZZI  16 1
M  ZZM  17 37
M  ZZI  17 125
M  ZZM  18 5
M  ZZI  18 1
M  ZZM  19 1
M  ZZI  19 110
M  ZZM  20 1
M  ZZI  20 111
M  ZZM  21 5
M  ZZI  21 1
M  ZZM  22 5
M  ZZI  22 1
M  ZZM  23 5
M  ZZI  23 1
M  ZZM  24 1
M  ZZI  24 111
M  ZZM  25 5
M  ZZI  25 1
M  ZZM  26 5
M  ZZI  26 1
M  ZZM  27 5
M  ZZI  27 1
M  ZZM  28 1
M  ZZI  28 111
M  ZZM  29 5
M  ZZI  29 1
M  ZZM  30 5
M  ZZI  30 1
M  ZZM  31 5
M  ZZI  31 1
M  ZZM  32 1
M  ZZI  32 112
M  ZZM  33 5
M  ZZI  33 1
M  ZZM  34 5
M  ZZI  34 1
M  ZZM  35 10
M  ZZI  35 192
M  ZZM  36 3
M  ZZI  36 121
M  ZZM  37 5
M  ZZI  37 1
M  ZZM  38 9
M  ZZI  38 220
M  ZZM  39 37
M  ZZI  39 124
M  ZZM  40 37
M  ZZI  40 124
M  ZZM  41 3
M  ZZI  41 121
M  ZZM  42 7
M  ZZI  42 81
M  ZZM  43 37
M  ZZI  43 125
M  ZZM  44 5
M  ZZI  44 1
M  ZZM  45 37
M  ZZI  45 125
M  ZZM  46 5
M  ZZI  46 1
M  ZZM  47 37
M  ZZI  47 125
M  ZZM  48 5
M  ZZI  48 1
M  ZZM  49 38
M  ZZI  49 223
M  END
> <NAME>
Z237852076

> <Score>
-29.777017

> <Natom>
49

> <Nflex>
6

> <Hbond>
-5.233465

> <Hphob>
-6.774912

> <VwInt>
-31.343927

> <Eintl>
7.42109

> <Dsolv>
14.127954

> <SolEl>
7.804247

> <mfScore>
-93.418587

> <RecConf>
1

> <molLogP>
2.860559

$$$$
Z287373314
  MOLSOFT 11211612053D

 49 51  0  0  1  0  0  0  0  0999 V2000
  -37.4113    6.3512   66.2644 H   0  0  0
  -36.6674    6.3673   65.6316 O   0  0  0
  -35.5321    6.9294   66.2947 C   0  0  2
  -34.7468    6.9771   65.5416 H   0  0  0
  -35.0622    5.9636   67.3783 C   0  0  0
  -34.1260    6.3216   67.8198 H   0  0  0
  -34.9163    4.9920   66.8959 H   0  0  0
  -36.0517    5.8501   68.4122 O   0  0  0
  -35.8044    4.8047   69.3137 C   0  0  0
  -34.8285    3.8320   69.1185 C   0  0  0
  -34.1867    3.8181   68.2473 H   0  0  0
  -34.6509    2.8283   70.0467 C   0  0  0
  -33.8887    2.0739   69.8748 H   0  0  0
  -35.4319    2.7788   71.1864 C   0  0  0
  -35.2199    1.6906   72.1943 C   0  0  0
  -35.9451    1.7584   73.0109 H   0  0  0
  -34.2157    1.7607   72.6241 H   0  0  0
  -35.3410    0.7136   71.7196 H   0  0  0
  -36.4044    3.7449   71.3784 C   0  0  0
  -37.0239    3.7108   72.2701 H   0  0  0
  -36.6094    4.7506   70.4466 C   0  0  0
  -37.6597    5.7853   70.7169 C   0  0  0
  -38.0000    6.2514   69.7893 H   0  0  0
  -37.2651    6.5599   71.3812 H   0  0  0
  -38.5367    5.3310   71.1874 H   0  0  0
  -35.9040    8.3334   66.7939 C   0  0  0
  -36.6694    8.7772   66.1467 H   0  0  0
  -36.3500    8.2876   67.7884 H   0  0  0
  -34.8069    9.3060   66.8372 N   0  0  0
  -34.3360    9.9292   67.9674 C   0  0  0
  -34.5494    9.7171   69.3183 C   0  0  0
  -35.1790    8.9161   69.6932 H   0  0  0
  -33.8980   10.5727   70.1848 C   0  0  0
  -34.0214   10.4365   71.2546 H   0  0  0
  -33.1024   11.6020   69.7235 C   0  0  0
  -32.6157   12.2626   70.4341 H   0  0  0
  -32.9023   11.8021   68.3731 C   0  0  0
  -32.2609   12.5989   68.0144 H   0  0  0
  -33.5206   10.9365   67.4876 C   0  0  0
  -33.4479   10.9072   66.1187 N   0  0  0
  -34.1785    9.8758   65.7488 C   0  0  0
  -34.2900    9.3745   64.3565 C   0  0  0
  -34.2085   10.2085   63.6593 H   0  0  0
  -35.2479    8.8841   64.1681 H   0  0  0
  -33.1589    8.3984   64.1032 C   0  0  0
  -32.2852    8.1357   64.9141 O   0  0  0
  -33.2086    7.7901   62.8817 N   0  0  0
  -32.4949    7.1119   62.6413 H   0  0  0
  -33.8932    8.0114   62.1690 H   0  0  0
  2  1  1
  3  2  1
  3  4  1
  3  5  1
  3 26  1
  5  6  1
  5  7  1
  5  8  1
  8  9  1
  9 10  1
  9 21  2
 10 11  1
 10 12  2
 12 13  1
 12 14  1
 14 15  1
 14 19  2
 15 16  1
 15 17  1
 15 18  1
 19 20  1
 19 21  1
 21 22  1
 22 23  1
 22 24  1
 22 25  1
 26 27  1
 26 28  1
 26 29  1
 29 30  1
 29 41  1
 30 31  1
 30 39  2
 31 32  1
 31 33  2
 33 34  1
 33 35  1
 35 36  1
 35 37  2
 37 38  1
 37 39  1
 39 40  1
 40 41  2
 41 42  1
 42 43  1
 42 44  1
 42 45  1
 45 46  2
 45 47  1
 47 48  1
 47 49  1
M  ZZC   1 h1
M  ZZC   2 o3
M  ZZC   3 c10
M  ZZC   4 h23
M  ZZC   5 c9
M  ZZC   6 h12
M  ZZC   7 h13
M  ZZC   8 o1
M  ZZC   9 c5
M  ZZC  10 c4
M  ZZC  11 h18
M  ZZC  12 c3
M  ZZC  13 h19
M  ZZC  14 c2
M  ZZC  15 c1
M  ZZC  16 h20
M  ZZC  17 h21
M  ZZC  18 h22
M  ZZC  19 c7
M  ZZC  20 h17
M  ZZC  21 c6
M  ZZC  22 c8
M  ZZC  23 h14
M  ZZC  24 h15
M  ZZC  25 h16
M  ZZC  26 c11
M  ZZC  27 h10
M  ZZC  28 h11
M  ZZC  29 n1
M  ZZC  30 c12
M  ZZC  31 c13
M  ZZC  32 h9
M  ZZC  33 c14
M  ZZC  34 h8
M  ZZC  35 c15
M  ZZC  36 h7
M  ZZC  37 c16
M  ZZC  38 h6
M  ZZC  39 c17
M  ZZC  40 n2
M  ZZC  41 c18
M  ZZC  42 c19
M  ZZC  43 h4
M  ZZC  44 h5
M  ZZC  45 c20
M  ZZC  46 o2
M  ZZC  47 n3
M  ZZC  48 h2
M  ZZC  49 h3
M  ZZM   1 21
M  ZZI   1 20
M  ZZM   2 6
M  ZZI   2 60
M  ZZM   3 1
M  ZZI   3 113
M  ZZM   4 5
M  ZZI   4 1
M  ZZM   5 1
M  ZZI   5 112
M  ZZM   6 5
M  ZZI   6 1
M  ZZM   7 5
M  ZZI   7 1
M  ZZM   8 6
M  ZZI   8 59
M  ZZM   9 37
M  ZZI   9 124
M  ZZM  10 37
M  ZZI  10 125
M  ZZM  11 5
M  ZZI  11 1
M  ZZM  12 37
M  ZZI  12 125
M  ZZM  13 5
M  ZZI  13 1
M  ZZM  14 37
M  ZZI  14 124
M  ZZM  15 1
M  ZZI  15 111
M  ZZM  16 5
M  ZZI  16 1
M  ZZM  17 5
M  ZZI  17 1
M  ZZM  18 5
M  ZZI  18 1
M  ZZM  19 37
M  ZZI  19 125
M  ZZM  20 5
M  ZZI  20 1
M  ZZM  21 37
M  ZZI  21 124
M  ZZM  22 1
M  ZZI  22 111
M  ZZM  23 5
M  ZZI  23 1
M  ZZM  24 5
M  ZZI  24 1
M  ZZM  25 5
M  ZZI  25 1
M  ZZM  26 1
M  ZZI  26 112
M  ZZM  27 5
M  ZZI  27 1
M  ZZM  28 5
M  ZZI  28 1
M  ZZM  29 39
M  ZZI  29 215
M  ZZM  30 63
M  ZZI  30 104
M  ZZM  31 37
M  ZZI  31 125
M  ZZM  32 5
M  ZZI  32 1
M  ZZM  33 37
M  ZZI  33 125
M  ZZM  34 5
M  ZZI  34 1
M  ZZM  35 37
M  ZZI  35 125
M  ZZM  36 5
M  ZZI  36 1
M  ZZM  37 37
M  ZZI  37 125
M  ZZM  38 5
M  ZZI  38 1
M  ZZM  39 64
M  ZZI  39 105
M  ZZM  40 66
M  ZZI  40 222
M  ZZM  41 63
M  ZZI  41 104
M  ZZM  42 1
M  ZZI  42 112
M  ZZM  43 5
M  ZZI  43 1
M  ZZM  44 5
M  ZZI  44 1
M  ZZM  45 3
M  ZZI  45 121
M  ZZM  46 7
M  ZZI  46 81
M  ZZM  47 10
M  ZZI  47 212
M  ZZM  48 28
M  ZZI  48 11
M  ZZM  49 28
M  ZZI  49 11
M  END
> <NAME>
Z287373314

> <Score>
-28.631206

> <Natom>
49

> <Nflex>
7

> <Hbond>
-7.896326

> <Hphob>
-6.221529

> <VwInt>
-26.604893

> <Eintl>
9.291625

> <Dsolv>
15.979025

> <SolEl>
8.993255

> <mfScore>
-88.803176

> <RecConf>
1

> <molLogP>
1.996644

$$$$
Z73431149
  MOLSOFT 11211612053D

 49 51  0  0  1  0  0  0  0  0999 V2000
  -36.9174    4.1517   72.9030 O   0  0  0
  -37.2479    4.9136   72.0039 C   0  0  0
  -38.2622    6.0061   72.2229 C   0  0  0
  -39.1012    5.8935   71.5326 H   0  0  0
  -37.7934    6.9881   72.1125 H   0  0  0
  -38.6597    5.9286   73.2388 H   0  0  0
  -36.6274    4.7620   70.6571 C   0  0  0
  -35.6744    3.7723   70.4850 C   0  0  0
  -35.3736    3.1349   71.3118 H   0  0  0
  -35.1119    3.5713   69.2426 C   0  0  0
  -34.3707    2.7869   69.1384 H   0  0  0
  -35.4970    4.3596   68.1653 C   0  0  0
  -34.9871    4.1584   66.8830 O   0  0  0
  -34.6140    2.7980   66.6475 C   0  0  0
  -33.6250    2.5803   67.0554 H   0  0  0
  -34.5710    2.6472   65.5679 H   0  0  0
  -35.3520    2.1082   67.0596 H   0  0  0
  -36.4132    5.3962   68.3313 C   0  0  0
  -36.9881    5.5681   69.5848 C   0  0  0
  -37.7487    6.3295   69.7063 H   0  0  0
  -36.8985    6.2592   67.1835 C   0  0  0
  -37.3630    7.1729   67.5526 H   0  0  0
  -37.6975    5.7263   66.6649 H   0  0  0
  -35.8674    6.6319   66.1340 C   0  0  0
  -35.9757    6.1862   65.0019 O   0  0  0
  -34.8543    7.5180   66.4888 N   0  0  0
  -34.8166    8.2093   67.7713 C   0  0  0
  -34.3049    7.5622   68.4926 H   0  0  0
  -35.8331    8.3722   68.1330 H   0  0  0
  -34.1067    9.5203   67.6858 C   0  0  0
  -34.5559   10.6281   68.3822 C   0  0  0
  -35.4664   10.5721   68.9634 H   0  0  0
  -33.8533   11.8116   68.3387 C   0  0  0
  -34.2105   12.6809   68.8810 H   0  0  0
  -32.6902   11.8835   67.6086 C   0  0  0
  -32.1293   12.8093   67.5866 H   0  0  0
  -32.2389   10.7809   66.9137 C   0  0  0
  -31.3204   10.8433   66.3494 H   0  0  0
  -32.9533    9.5995   66.9339 C   0  0  0
  -32.5046    8.3791   66.1869 C   0  0  0
  -31.7797    8.6521   65.4120 H   0  0  0
  -31.9925    7.7218   66.8937 H   0  0  0
  -33.7079    7.6592   65.5704 C   0  0  1
  -33.4066    6.6497   65.2752 H   0  0  0
  -34.0940    8.3750   64.2784 C   0  0  0
  -34.8317    9.3472   64.2303 O   0  0  0
  -33.4968    7.8531   63.1551 N   0  0  0
  -33.7251    8.2371   62.2459 H   0  0  0
  -32.8512    7.0697   63.1591 H   0  0  0
  2  1  2
  2  3  1
  2  7  1
  3  4  1
  3  5  1
  3  6  1
  7  8  2
  7 19  1
  8  9  1
  8 10  1
 10 11  1
 10 12  2
 12 13  1
 12 18  1
 13 14  1
 14 15  1
 14 16  1
 14 17  1
 18 19  2
 18 21  1
 19 20  1
 21 22  1
 21 23  1
 21 24  1
 24 25  2
 24 26  1
 26 27  1
 43 26  1
 27 28  1
 27 29  1
 27 30  1
 30 31  2
 30 39  1
 31 32  1
 31 33  1
 33 34  1
 33 35  2
 35 36  1
 35 37  1
 37 38  1
 37 39  2
 39 40  1
 40 41  1
 40 42  1
 43 40  1
 43 44  1
 43 45  1
 45 46  2
 45 47  1
 47 48  1
 47 49  1
M  ZZC   1 o1
M  ZZC   2 c2
M  ZZC   3 c1
M  ZZC   4 h19
M  ZZC   5 h20
M  ZZC   6 h21
M  ZZC   7 c3
M  ZZC   8 c4
M  ZZC   9 h18
M  ZZC  10 c5
M  ZZC  11 h17
M  ZZC  12 c6
M  ZZC  13 o4
M  ZZC  14 c21
M  ZZC  15 h1
M  ZZC  16 h2
M  ZZC  17 h3
M  ZZC  18 c7
M  ZZC  19 c8
M  ZZC  20 h16
M  ZZC  21 c9
M  ZZC  22 h14
M  ZZC  23 h15
M  ZZC  24 c10
M  ZZC  25 o2
M  ZZC  26 n1
M  ZZC  27 c11
M  ZZC  28 h12
M  ZZC  29 h13
M  ZZC  30 c12
M  ZZC  31 c13
M  ZZC  32 h11
M  ZZC  33 c14
M  ZZC  34 h10
M  ZZC  35 c15
M  ZZC  36 h9
M  ZZC  37 c16
M  ZZC  38 h8
M  ZZC  39 c17
M  ZZC  40 c18
M  ZZC  41 h6
M  ZZC  42 h7
M  ZZC  43 c19
M  ZZC  44 h22
M  ZZC  45 c20
M  ZZC  46 o3
M  ZZC  47 n2
M  ZZC  48 h4
M  ZZC  49 h5
M  ZZM   1 7
M  ZZI   1 80
M  ZZM   2 3
M  ZZI   2 122
M  ZZM   3 1
M  ZZI   3 111
M  ZZM   4 5
M  ZZI   4 1
M  ZZM   5 5
M  ZZI   5 1
M  ZZM   6 5
M  ZZI   6 1
M  ZZM   7 37
M  ZZI   7 124
M  ZZM   8 37
M  ZZI   8 125
M  ZZM   9 5
M  ZZI   9 1
M  ZZM  10 37
M  ZZI  10 125
M  ZZM  11 5
M  ZZI  11 1
M  ZZM  12 37
M  ZZI  12 124
M  ZZM  13 6
M  ZZI  13 59
M  ZZM  14 1
M  ZZI  14 111
M  ZZM  15 5
M  ZZI  15 1
M  ZZM  16 5
M  ZZI  16 1
M  ZZM  17 5
M  ZZI  17 1
M  ZZM  18 37
M  ZZI  18 124
M  ZZM  19 37
M  ZZI  19 125
M  ZZM  20 5
M  ZZI  20 1
M  ZZM  21 1
M  ZZI  21 112
M  ZZM  22 5
M  ZZI  22 1
M  ZZM  23 5
M  ZZI  23 1
M  ZZM  24 3
M  ZZI  24 121
M  ZZM  25 7
M  ZZI  25 81
M  ZZM  26 10
M  ZZI  26 192
M  ZZM  27 1
M  ZZI  27 112
M  ZZM  28 5
M  ZZI  28 1
M  ZZM  29 5
M  ZZI  29 1
M  ZZM  30 37
M  ZZI  30 124
M  ZZM  31 37
M  ZZI  31 125
M  ZZM  32 5
M  ZZI  32 1
M  ZZM  33 37
M  ZZI  33 125
M  ZZM  34 5
M  ZZI  34 1
M  ZZM  35 37
M  ZZI  35 125
M  ZZM  36 5
M  ZZI  36 1
M  ZZM  37 37
M  ZZI  37 125
M  ZZM  38 5
M  ZZI  38 1
M  ZZM  39 37
M  ZZI  39 124
M  ZZM  40 1
M  ZZI  40 112
M  ZZM  41 5
M  ZZI  41 1
M  ZZM  42 5
M  ZZI  42 1
M  ZZM  43 1
M  ZZI  43 113
M  ZZM  44 5
M  ZZI  44 1
M  ZZM  45 3
M  ZZI  45 121
M  ZZM  46 7
M  ZZI  46 81
M  ZZM  47 10
M  ZZI  47 212
M  ZZM  48 28
M  ZZI  48 11
M  ZZM  49 28
M  ZZI  49 11
M  END
> <NAME>
Z73431149

> <Score>
-28.42966

> <Natom>
49

> <Nflex>
4

> <Hbond>
-5.63827

> <Hphob>
-6.990772

> <VwInt>
-25.018888

> <Eintl>
9.424539

> <Dsolv>
12.034362

> <SolEl>
6.230449

> <mfScore>
-95.195061

> <RecConf>
1

> <molLogP>
1.576228

$$$$
Z193376142
  MOLSOFT 11211612053D

 49 51  0  0  0  0  0  0  0  0999 V2000
  -35.7206    6.7096   70.0476 O   0  0  0
  -36.0323    5.5336   69.9127 C   0  0  0
  -36.9086    4.8250   70.6846 O   0  0  0
  -37.4922    5.6053   71.7268 C   0  0  0
  -38.1367    6.3815   71.3042 H   0  0  0
  -38.1077    4.9451   72.3432 H   0  0  0
  -36.7179    6.0463   72.3627 H   0  0  0
  -35.5517    4.6823   68.8004 C   0  0  0
  -35.1044    3.3723   69.0205 C   0  0  0
  -35.0131    2.7492   70.3861 C   0  0  0
  -35.9996    2.4437   70.7472 H   0  0  0
  -34.3789    1.8579   70.3597 H   0  0  0
  -34.5491    3.4378   71.0991 H   0  0  0
  -34.7416    2.6131   67.9195 C   0  0  0
  -34.4077    1.5870   68.0428 H   0  0  0
  -34.8017    3.1397   66.6487 C   0  0  0
  -34.5100    2.5314   65.7994 H   0  0  0
  -35.2022    4.4407   66.4465 C   0  0  0
  -35.1912    4.8221   65.4339 H   0  0  0
  -35.5642    5.2380   67.5203 C   0  0  0
  -35.8954    6.6090   67.3447 N   0  0  0
  -35.9807    7.1729   68.1870 H   0  0  0
  -36.0824    7.2298   66.1207 C   0  0  0
  -36.2364    6.6617   65.0510 O   0  0  0
  -36.0761    8.7370   66.2022 C   0  0  0
  -35.8950    9.0705   67.2287 H   0  0  0
  -37.0798    9.0807   65.9319 H   0  0  0
  -35.0493    9.3324   65.2322 C   0  0  0
  -35.1711   10.4173   65.2376 H   0  0  0
  -35.2599    9.0079   64.2092 H   0  0  0
  -33.5908    8.9895   65.5558 C   0  0  0
  -32.9329    9.5593   64.8910 H   0  0  0
  -33.4000    7.9266   65.3744 H   0  0  0
  -33.2440    9.3187   66.9324 N   0  0  0
  -33.0037    8.3045   67.8337 C   0  0  0
  -32.9907    7.2959   67.3934 H   0  0  0
  -32.8044    8.4604   69.0992 N   0  0  0
  -32.9126    9.7651   69.5872 C   0  0  0
  -32.8781    9.9631   70.9535 C   0  0  0
  -32.7569    9.1118   71.6157 H   0  0  0
  -33.0130   11.2295   71.4838 C   0  0  0
  -32.9977   11.3725   72.5599 H   0  0  0
  -33.1837   12.3127   70.6495 C   0  0  0
  -33.3222   13.2978   71.0795 H   0  0  0
  -33.2077   12.1404   69.2805 C   0  0  0
  -33.3494   12.9990   68.6311 H   0  0  0
  -33.0736   10.8621   68.7612 C   0  0  0
  -33.1487   10.6417   67.3067 C   0  0  0
  -33.1354   11.5923   66.5360 O   0  0  0
  2  1  2
  2  3  1
  2  8  1
  3  4  1
  4  5  1
  4  6  1
  4  7  1
  8  9  2
  8 20  1
  9 10  1
  9 14  1
 10 11  1
 10 12  1
 10 13  1
 14 15  1
 14 16  2
 16 17  1
 16 18  1
 18 19  1
 18 20  2
 20 21  1
 21 22  1
 21 23  1
 23 24  2
 23 25  1
 25 26  1
 25 27  1
 25 28  1
 28 29  1
 28 30  1
 28 31  1
 31 32  1
 31 33  1
 31 34  1
 34 35  1
 34 48  1
 35 36  1
 35 37  2
 37 38  1
 38 39  2
 38 47  1
 39 40  1
 39 41  1
 41 42  1
 41 43  2
 43 44  1
 43 45  1
 45 46  1
 45 47  2
 47 48  1
 48 49  2
M  ZZC   1 o1
M  ZZC   2 c8
M  ZZC   3 o2
M  ZZC   4 c9
M  ZZC   5 h13
M  ZZC   6 h14
M  ZZC   7 h15
M  ZZC   8 c7
M  ZZC   9 c2
M  ZZC  10 c1
M  ZZC  11 h19
M  ZZC  12 h20
M  ZZC  13 h21
M  ZZC  14 c3
M  ZZC  15 h18
M  ZZC  16 c4
M  ZZC  17 h17
M  ZZC  18 c5
M  ZZC  19 h16
M  ZZC  20 c6
M  ZZC  21 n1
M  ZZC  22 h12
M  ZZC  23 c10
M  ZZC  24 o3
M  ZZC  25 c11
M  ZZC  26 h10
M  ZZC  27 h11
M  ZZC  28 c12
M  ZZC  29 h8
M  ZZC  30 h9
M  ZZC  31 c13
M  ZZC  32 h6
M  ZZC  33 h7
M  ZZC  34 n2
M  ZZC  35 c14
M  ZZC  36 h5
M  ZZC  37 n3
M  ZZC  38 c15
M  ZZC  39 c16
M  ZZC  40 h4
M  ZZC  41 c17
M  ZZC  42 h3
M  ZZC  43 c18
M  ZZC  44 h2
M  ZZC  45 c19
M  ZZC  46 h1
M  ZZC  47 c20
M  ZZC  48 c21
M  ZZC  49 o4
M  ZZM   1 7
M  ZZI   1 82
M  ZZM   2 3
M  ZZI   2 123
M  ZZM   3 6
M  ZZI   3 65
M  ZZM   4 1
M  ZZI   4 111
M  ZZM   5 5
M  ZZI   5 1
M  ZZM   6 5
M  ZZI   6 1
M  ZZM   7 5
M  ZZI   7 1
M  ZZM   8 37
M  ZZI   8 124
M  ZZM   9 37
M  ZZI   9 124
M  ZZM  10 1
M  ZZI  10 111
M  ZZM  11 5
M  ZZI  11 1
M  ZZM  12 5
M  ZZI  12 1
M  ZZM  13 5
M  ZZI  13 1
M  ZZM  14 37
M  ZZI  14 125
M  ZZM  15 5
M  ZZI  15 1
M  ZZM  16 37
M  ZZI  16 125
M  ZZM  17 5
M  ZZI  17 1
M  ZZM  18 37
M  ZZI  18 125
M  ZZM  19 5
M  ZZI  19 1
M  ZZM  20 37
M  ZZI  20 124
M  ZZM  21 10
M  ZZI  21 191
M  ZZM  22 28
M  ZZI  22 11
M  ZZM  23 3
M  ZZI  23 121
M  ZZM  24 7
M  ZZI  24 81
M  ZZM  25 1
M  ZZI  25 112
M  ZZM  26 5
M  ZZI  26 1
M  ZZM  27 5
M  ZZI  27 1
M  ZZM  28 1
M  ZZI  28 112
M  ZZM  29 5
M  ZZI  29 1
M  ZZM  30 5
M  ZZI  30 1
M  ZZM  31 1
M  ZZI  31 112
M  ZZM  32 5
M  ZZI  32 1
M  ZZM  33 5
M  ZZI  33 1
M  ZZM  34 10
M  ZZI  34 192
M  ZZM  35 3
M  ZZI  35 121
M  ZZM  36 5
M  ZZI  36 1
M  ZZM  37 9
M  ZZI  37 220
M  ZZM  38 37
M  ZZI  38 124
M  ZZM  39 37
M  ZZI  39 125
M  ZZM  40 5
M  ZZI  40 1
M  ZZM  41 37
M  ZZI  41 125
M  ZZM  42 5
M  ZZI  42 1
M  ZZM  43 37
M  ZZI  43 125
M  ZZM  44 5
M  ZZI  44 1
M  ZZM  45 37
M  ZZI  45 125
M  ZZM  46 5
M  ZZI  46 1
M  ZZM  47 37
M  ZZI  47 124
M  ZZM  48 3
M  ZZI  48 121
M  ZZM  49 7
M  ZZI  49 81
M  END
> <NAME>
Z193376142

> <Score>
-28.329907

> <Natom>
49

> <Nflex>
4

> <Hbond>
-2.990868

> <Hphob>
-5.992509

> <VwInt>
-32.110327

> <Eintl>
9.278091

> <Dsolv>
11.795723

> <SolEl>
6.235615

> <mfScore>
-103.909005

> <RecConf>
1

> <molLogP>
2.580276

$$$$
Z333714100
  MOLSOFT 11211612053D

 49 52  0  0  0  0  0  0  0  0999 V2000
  -30.6763   10.3745   71.8000 H   0  0  0
  -30.9239   10.5242   70.7448 C   0  0  0
  -30.0159   10.7660   70.1846 H   0  0  0
  -32.0029   11.5770   70.5473 C   0  0  0
  -32.6974   11.5510   71.3950 H   0  0  0
  -31.6065   12.5939   70.4770 H   0  0  0
  -32.7198   11.1311   69.2944 C   0  0  0
  -33.7752   11.4219   69.2970 H   0  0  0
  -32.2359   11.5057   68.3857 H   0  0  0
  -32.5769    9.6976   69.3367 N   0  0  0
  -31.5455    9.2898   70.1531 C   0  0  0
  -31.1680    8.1431   70.3517 O   0  0  0
  -33.4500    8.8089   68.5869 C   0  0  0
  -33.3389    7.7972   68.9912 H   0  0  0
  -34.4675    9.1442   68.8064 H   0  0  0
  -33.1953    8.7533   67.0935 C   0  0  0
  -31.8906    8.8058   66.6147 C   0  0  0
  -31.0590    8.9315   67.3006 H   0  0  0
  -31.6100    8.6721   65.2724 C   0  0  0
  -30.5817    8.7067   64.9277 H   0  0  0
  -32.6292    8.4801   64.3706 C   0  0  0
  -32.4085    8.3630   63.3137 H   0  0  0
  -33.9289    8.4113   64.8197 C   0  0  0
  -34.7152    8.2279   64.0929 H   0  0  0
  -34.2348    8.5351   66.1711 C   0  0  0
  -35.6720    8.3509   66.5969 C   0  0  0
  -36.3363    8.3060   65.7275 H   0  0  0
  -36.0074    9.1901   67.2139 H   0  0  0
  -35.8103    7.1318   67.3619 N   0  0  0
  -35.5586    7.1559   68.3417 H   0  0  0
  -36.0369    5.9170   66.7568 C   0  0  0
  -36.3323    5.7717   65.5788 O   0  0  0
  -35.8054    4.7622   67.6814 C   0  0  0
  -35.0225    3.7912   67.1830 C   0  0  0
  -34.6451    3.8060   66.1663 H   0  0  0
  -34.5587    2.6639   68.0231 C   0  0  0
  -33.8504    1.7850   67.5606 O   0  0  0
  -34.9403    2.6915   69.3381 N   0  0  0
  -34.6140    1.9351   69.9274 H   0  0  0
  -35.7948    3.6642   69.8760 C   0  0  0
  -36.2725    4.6848   69.0738 C   0  0  0
  -37.2190    5.5505   69.6113 C   0  0  0
  -37.6827    6.3186   69.0019 H   0  0  0
  -37.6213    5.4312   70.9271 C   0  0  0
  -38.3619    6.1145   71.3321 H   0  0  0
  -37.0989    4.4372   71.7257 C   0  0  0
  -37.4235    4.3404   72.7573 H   0  0  0
  -36.1882    3.5463   71.1977 C   0  0  0
  -35.8083    2.7413   71.8188 H   0  0  0
  2  1  1
  2  3  1
  2  4  1
  2 11  1
  4  5  1
  4  6  1
  4  7  1
  7  8  1
  7  9  1
  7 10  1
 10 11  1
 10 13  1
 11 12  2
 13 14  1
 13 15  1
 13 16  1
 16 17  2
 16 25  1
 17 18  1
 17 19  1
 19 20  1
 19 21  2
 21 22  1
 21 23  1
 23 24  1
 23 25  2
 25 26  1
 26 27  1
 26 28  1
 26 29  1
 29 30  1
 29 31  1
 31 32  2
 31 33  1
 33 34  2
 33 41  1
 34 35  1
 34 36  1
 36 37  2
 36 38  1
 38 39  1
 38 40  1
 40 41  2
 40 48  1
 41 42  1
 42 43  1
 42 44  2
 44 45  1
 44 46  1
 46 47  1
 46 48  2
 48 49  1
M  ZZC   1 h2
M  ZZC   2 c21
M  ZZC   3 h3
M  ZZC   4 c20
M  ZZC   5 h4
M  ZZC   6 h5
M  ZZC   7 c19
M  ZZC   8 h6
M  ZZC   9 h7
M  ZZC  10 n3
M  ZZC  11 c22
M  ZZC  12 o3
M  ZZC  13 c18
M  ZZC  14 h8
M  ZZC  15 h9
M  ZZC  16 c4
M  ZZC  17 c3
M  ZZC  18 h19
M  ZZC  19 c2
M  ZZC  20 h20
M  ZZC  21 c1
M  ZZC  22 h21
M  ZZC  23 c6
M  ZZC  24 h18
M  ZZC  25 c5
M  ZZC  26 c7
M  ZZC  27 h16
M  ZZC  28 h17
M  ZZC  29 n1
M  ZZC  30 h15
M  ZZC  31 c8
M  ZZC  32 o1
M  ZZC  33 c9
M  ZZC  34 c10
M  ZZC  35 h14
M  ZZC  36 c11
M  ZZC  37 o2
M  ZZC  38 n2
M  ZZC  39 h1
M  ZZC  40 c12
M  ZZC  41 c13
M  ZZC  42 c14
M  ZZC  43 h13
M  ZZC  44 c15
M  ZZC  45 h12
M  ZZC  46 c16
M  ZZC  47 h11
M  ZZC  48 c17
M  ZZC  49 h10
M  ZZM   1 5
M  ZZI   1 1
M  ZZM   2 1
M  ZZI   2 112
M  ZZM   3 5
M  ZZI   3 1
M  ZZM   4 1
M  ZZI   4 112
M  ZZM   5 5
M  ZZI   5 1
M  ZZM   6 5
M  ZZI   6 1
M  ZZM   7 1
M  ZZI   7 112
M  ZZM   8 5
M  ZZI   8 1
M  ZZM   9 5
M  ZZI   9 1
M  ZZM  10 10
M  ZZI  10 192
M  ZZM  11 3
M  ZZI  11 121
M  ZZM  12 7
M  ZZI  12 81
M  ZZM  13 1
M  ZZI  13 112
M  ZZM  14 5
M  ZZI  14 1
M  ZZM  15 5
M  ZZI  15 1
M  ZZM  16 37
M  ZZI  16 124
M  ZZM  17 37
M  ZZI  17 125
M  ZZM  18 5
M  ZZI  18 1
M  ZZM  19 37
M  ZZI  19 125
M  ZZM  20 5
M  ZZI  20 1
M  ZZM  21 37
M  ZZI  21 125
M  ZZM  22 5
M  ZZI  22 1
M  ZZM  23 37
M  ZZI  23 125
M  ZZM  24 5
M  ZZI  24 1
M  ZZM  25 37
M  ZZI  25 124
M  ZZM  26 1
M  ZZI  26 112
M  ZZM  27 5
M  ZZI  27 1
M  ZZM  28 5
M  ZZI  28 1
M  ZZM  29 10
M  ZZI  29 211
M  ZZM  30 28
M  ZZI  30 11
M  ZZM  31 3
M  ZZI  31 121
M  ZZM  32 7
M  ZZI  32 81
M  ZZM  33 2
M  ZZI  33 120
M  ZZM  34 2
M  ZZI  34 120
M  ZZM  35 5
M  ZZI  35 1
M  ZZM  36 3
M  ZZI  36 121
M  ZZM  37 7
M  ZZI  37 81
M  ZZM  38 10
M  ZZI  38 191
M  ZZM  39 28
M  ZZI  39 11
M  ZZM  40 37
M  ZZI  40 124
M  ZZM  41 37
M  ZZI  41 124
M  ZZM  42 37
M  ZZI  42 125
M  ZZM  43 5
M  ZZI  43 1
M  ZZM  44 37
M  ZZI  44 125
M  ZZM  45 5
M  ZZI  45 1
M  ZZM  46 37
M  ZZI  46 125
M  ZZM  47 5
M  ZZI  47 1
M  ZZM  48 37
M  ZZI  48 125
M  ZZM  49 5
M  ZZI  49 1
M  END
> <NAME>
Z333714100

> <Score>
-27.979421

> <Natom>
49

> <Nflex>
4

> <Hbond>
-2.51613

> <Hphob>
-6.795833

> <VwInt>
-32.190857

> <Eintl>
7.694397

> <Dsolv>
12.831358

> <SolEl>
4.707477

> <mfScore>
-106.740145

> <RecConf>
1

> <molLogP>
2.246495

$$$$
Z19702911
  MOLSOFT 11211612053D

 49 51  0  0  1  0  0  0  0  0999 V2000
  -35.6218    6.4057   70.2198 O   0  0  0
  -35.4725    7.1149   69.2329 C   0  0  0
  -34.9398    8.4739   69.3179 C   0  0  0
  -34.9025    9.4464   68.2791 C   0  0  0
  -35.2896    9.3471   67.2749 H   0  0  0
  -34.2692   10.5743   68.7402 C   0  0  0
  -33.9187   11.8092   67.9898 C   0  0  0
  -32.9425   11.7065   67.5077 H   0  0  0
  -33.8964   12.6961   68.6274 H   0  0  0
  -34.6573   11.9990   67.2104 H   0  0  0
  -33.9502   10.3439   70.0602 N   0  0  0
  -34.3568    9.0729   70.4297 C   0  0  0
  -34.1449    8.5443   71.8081 C   0  0  0
  -33.0807    8.3990   72.0101 H   0  0  0
  -34.6366    7.5835   71.9661 H   0  0  0
  -34.5488    9.2276   72.5602 H   0  0  0
  -33.3109   11.3305   70.9379 C   0  0  0
  -33.4508   11.0289   71.9781 H   0  0  0
  -33.8762   12.2620   70.8383 H   0  0  0
  -31.8367   11.5870   70.6191 C   0  0  2
  -31.7035   11.7255   69.5458 H   0  0  0
  -30.8841   10.5250   71.1345 C   0  0  0
  -29.9392   10.5900   70.5839 H   0  0  0
  -31.2498    9.4991   71.0423 H   0  0  0
  -30.6442   10.9673   72.5478 C   0  0  0
  -29.7187   10.5802   72.9815 H   0  0  0
  -31.4708   10.6397   73.1869 H   0  0  0
  -30.6583   12.4736   72.4210 C   0  0  0
  -29.6580   12.8663   72.2371 H   0  0  0
  -31.0611   12.9684   73.3069 H   0  0  0
  -31.4621   12.7995   71.2850 O   0  0  0
  -35.8517    6.5820   67.8684 C   0  0  0
  -36.7210    7.1272   67.4846 H   0  0  0
  -36.0854    5.5151   67.9462 H   0  0  0
  -34.6897    6.7432   67.0512 O   0  0  0
  -34.9442    6.9709   65.7319 C   0  0  0
  -36.0220    6.8067   65.1737 O   0  0  0
  -33.6816    7.4872   65.1471 C   0  0  0
  -32.6051    7.8036   65.9686 C   0  0  0
  -32.6507    7.6816   67.0461 H   0  0  0
  -31.4359    8.2848   65.4151 C   0  0  0
  -30.5922    8.5201   66.0565 H   0  0  0
  -31.3246    8.4472   64.0492 C   0  0  0
  -30.3908    8.7887   63.6141 H   0  0  0
  -32.3940    8.1627   63.2299 C   0  0  0
  -32.2943    8.2967   62.1588 H   0  0  0
  -33.5689    7.6950   63.7846 C   0  0  0
  -34.6424    7.4419   62.9636 O   0  0  0
  -34.3874    7.7006   62.0612 H   0  0  0
  2  1  2
  2  3  1
  2 32  1
  3  4  1
  3 12  2
  4  5  1
  4  6  2
  6  7  1
  6 11  1
  7  8  1
  7  9  1
  7 10  1
 11 12  1
 11 17  1
 12 13  1
 13 14  1
 13 15  1
 13 16  1
 17 18  1
 17 19  1
 20 17  1
 20 21  1
 20 22  1
 20 31  1
 22 23  1
 22 24  1
 22 25  1
 25 26  1
 25 27  1
 25 28  1
 28 29  1
 28 30  1
 28 31  1
 32 33  1
 32 34  1
 32 35  1
 35 36  1
 36 37  2
 36 38  1
 38 39  2
 38 47  1
 39 40  1
 39 41  1
 41 42  1
 41 43  2
 43 44  1
 43 45  1
 45 46  1
 45 47  2
 47 48  1
 48 49  1
M  ZZC   1 o2
M  ZZC   2 c12
M  ZZC   3 c4
M  ZZC   4 c3
M  ZZC   5 h19
M  ZZC   6 c2
M  ZZC   7 c1
M  ZZC   8 h20
M  ZZC   9 h21
M  ZZC  10 h22
M  ZZC  11 n1
M  ZZC  12 c5
M  ZZC  13 c11
M  ZZC  14 h10
M  ZZC  15 h8
M  ZZC  16 h9
M  ZZC  17 c6
M  ZZC  18 h17
M  ZZC  19 h18
M  ZZC  20 c7
M  ZZC  21 h23
M  ZZC  22 c8
M  ZZC  23 h15
M  ZZC  24 h16
M  ZZC  25 c9
M  ZZC  26 h13
M  ZZC  27 h14
M  ZZC  28 c10
M  ZZC  29 h11
M  ZZC  30 h12
M  ZZC  31 o1
M  ZZC  32 c13
M  ZZC  33 h6
M  ZZC  34 h7
M  ZZC  35 o3
M  ZZC  36 c14
M  ZZC  37 o4
M  ZZC  38 c15
M  ZZC  39 c16
M  ZZC  40 h5
M  ZZC  41 c17
M  ZZC  42 h4
M  ZZC  43 c18
M  ZZC  44 h3
M  ZZC  45 c19
M  ZZC  46 h2
M  ZZC  47 c20
M  ZZC  48 o5
M  ZZC  49 h1
M  ZZM   1 7
M  ZZI   1 80
M  ZZM   2 3
M  ZZI   2 122
M  ZZM   3 64
M  ZZI   3 105
M  ZZM   4 64
M  ZZI   4 105
M  ZZM   5 5
M  ZZI   5 1
M  ZZM   6 63
M  ZZI   6 104
M  ZZM   7 1
M  ZZI   7 111
M  ZZM   8 5
M  ZZI   8 1
M  ZZM   9 5
M  ZZI   9 1
M  ZZM  10 5
M  ZZI  10 1
M  ZZM  11 39
M  ZZI  11 215
M  ZZM  12 63
M  ZZI  12 104
M  ZZM  13 1
M  ZZI  13 111
M  ZZM  14 5
M  ZZI  14 1
M  ZZM  15 5
M  ZZI  15 1
M  ZZM  16 5
M  ZZI  16 1
M  ZZM  17 1
M  ZZI  17 112
M  ZZM  18 5
M  ZZI  18 1
M  ZZM  19 5
M  ZZI  19 1
M  ZZM  20 1
M  ZZI  20 113
M  ZZM  21 5
M  ZZI  21 1
M  ZZM  22 1
M  ZZI  22 112
M  ZZM  23 5
M  ZZI  23 1
M  ZZM  24 5
M  ZZI  24 1
M  ZZM  25 1
M  ZZI  25 112
M  ZZM  26 5
M  ZZI  26 1
M  ZZM  27 5
M  ZZI  27 1
M  ZZM  28 1
M  ZZI  28 112
M  ZZM  29 5
M  ZZI  29 1
M  ZZM  30 5
M  ZZI  30 1
M  ZZM  31 6
M  ZZI  31 65
M  ZZM  32 1
M  ZZI  32 112
M  ZZM  33 5
M  ZZI  33 1
M  ZZM  34 5
M  ZZI  34 1
M  ZZM  35 6
M  ZZI  35 61
M  ZZM  36 3
M  ZZI  36 123
M  ZZM  37 7
M  ZZI  37 82
M  ZZM  38 37
M  ZZI  38 124
M  ZZM  39 37
M  ZZI  39 125
M  ZZM  40 5
M  ZZI  40 1
M  ZZM  41 37
M  ZZI  41 125
M  ZZM  42 5
M  ZZI  42 1
M  ZZM  43 37
M  ZZI  43 125
M  ZZM  44 5
M  ZZI  44 1
M  ZZM  45 37
M  ZZI  45 125
M  ZZM  46 5
M  ZZI  46 1
M  ZZM  47 37
M  ZZI  47 124
M  ZZM  48 6
M  ZZI  48 62
M  ZZM  49 29
M  ZZI  49 27
M  END
> <NAME>
Z19702911

> <Score>
-27.291028

> <Natom>
49

> <Nflex>
4

> <Hbond>
-4.273049

> <Hphob>
-7.172558

> <VwInt>
-26.550971

> <Eintl>
8.513357

> <Dsolv>
14.022206

> <SolEl>
2.969266

> <mfScore>
-54.949938

> <RecConf>
1

> <molLogP>
2.438258

$$$$
Z1466142370
  MOLSOFT 11211612053D

 49 52  0  0  1  0  0  0  0  0999 V2000
  -35.1628    4.4121   71.0208 Br  0  0  0
  -35.3313    4.5513   69.1303 C   0  0  0
  -35.5725    3.4976   68.2780 C   0  0  0
  -35.6779    2.4562   68.5493 H   0  0  0
  -35.6736    4.0539   66.9813 C   0  0  0
  -35.8541    3.5239   66.0565 H   0  0  0
  -35.4514    5.4091   67.1169 C   0  0  0
  -35.2324    5.7167   68.4315 O   0  0  0
  -35.3832    6.4608   66.1403 C   0  0  0
  -35.8868    6.3557   65.0317 O   0  0  0
  -34.7086    7.5692   66.6154 N   0  0  0
  -34.6333    7.6674   67.6217 H   0  0  0
  -34.0477    8.4749   65.7880 C   0  0  0
  -33.6433    8.4260   64.4625 C   0  0  0
  -33.8095    7.3761   63.4352 C   0  0  0
  -33.1097    7.5310   62.6091 H   0  0  0
  -34.8183    7.4011   63.0159 H   0  0  0
  -33.6080    6.3839   63.8433 H   0  0  0
  -32.9091    9.6163   64.2772 C   0  0  0
  -32.3665    9.9308   63.3983 H   0  0  0
  -32.9009   10.4070   65.3502 N   0  0  0
  -33.5636    9.6772   66.2669 N   0  0  0
  -33.6944   10.2219   67.6143 C   0  0  2
  -34.6485    9.8696   68.0250 H   0  0  0
  -33.6602   11.7375   67.6564 C   0  0  0
  -34.6147   12.1841   67.3770 H   0  0  0
  -32.8912   12.1628   67.0034 H   0  0  0
  -33.2941   12.0160   69.0830 C   0  0  0
  -34.1325   11.8185   69.7533 H   0  0  0
  -32.8928   13.0234   69.2322 H   0  0  0
  -32.2294   10.9993   69.3582 N   0  3  2
  -31.3579   11.4017   68.9855 H   0  0  0
  -32.5372    9.7940   68.5099 C   0  0  0
  -32.8153    8.9578   69.1604 H   0  0  0
  -31.6224    9.5361   67.9642 H   0  0  0
  -31.9878   10.7173   70.8196 C   0  0  0
  -31.0955   10.0843   70.8826 H   0  0  0
  -32.8413   10.1387   71.1915 H   0  0  0
  -31.8074   11.9728   71.6272 C   0  0  0
  -30.6017   12.6580   71.6329 C   0  0  0
  -29.7350   12.2593   71.1143 H   0  0  0
  -30.5066   13.8831   72.2614 C   0  0  0
  -29.5835   14.4421   72.2348 H   0  0  0
  -31.5987   14.4441   72.8811 C   0  0  0
  -31.5255   15.4324   73.3213 H   0  0  0
  -32.7917   13.7614   72.8977 C   0  0  0
  -33.6707   14.2127   73.3433 H   0  0  0
  -32.8890   12.5282   72.2939 C   0  0  0
  -33.8465   12.0222   72.3027 H   0  0  0
  2  1  1
  2  3  2
  2  8  1
  3  4  1
  3  5  1
  5  6  1
  5  7  2
  7  8  1
  7  9  1
  9 10  2
  9 11  1
 11 12  1
 11 13  1
 13 14  2
 13 22  1
 14 15  1
 14 19  1
 15 16  1
 15 17  1
 15 18  1
 19 20  1
 19 21  2
 21 22  1
 23 22  1
 23 24  1
 23 25  1
 23 33  1
 25 26  1
 25 27  1
 25 28  1
 28 29  1
 28 30  1
 31 28  1
 31 32  1
 31 33  1
 31 36  1
 33 34  1
 33 35  1
 36 37  1
 36 38  1
 36 39  1
 39 40  2
 39 48  1
 40 41  1
 40 42  1
 42 43  1
 42 44  2
 44 45  1
 44 46  1
 46 47  1
 46 48  2
 48 49  1
M  ZZC   1 &Br1
M  ZZC   2 c9
M  ZZC   3 c8
M  ZZC   4 h15
M  ZZC   5 c7
M  ZZC   6 h16
M  ZZC   7 c6
M  ZZC   8 o2
M  ZZC   9 c5
M  ZZC  10 o1
M  ZZC  11 n3
M  ZZC  12 h17
M  ZZC  13 c4
M  ZZC  14 c2
M  ZZC  15 c1
M  ZZC  16 h19
M  ZZC  17 h20
M  ZZC  18 h21
M  ZZC  19 c3
M  ZZC  20 h18
M  ZZC  21 n1
M  ZZC  22 n2
M  ZZC  23 c10
M  ZZC  24 h22
M  ZZC  25 c11
M  ZZC  26 h13
M  ZZC  27 h14
M  ZZC  28 c12
M  ZZC  29 h11
M  ZZC  30 h12
M  ZZC  31 n4
M  ZZC  32 h1
M  ZZC  33 c13
M  ZZC  34 h10
M  ZZC  35 h9
M  ZZC  36 c14
M  ZZC  37 h7
M  ZZC  38 h8
M  ZZC  39 c15
M  ZZC  40 c16
M  ZZC  41 h6
M  ZZC  42 c17
M  ZZC  43 h5
M  ZZC  44 c18
M  ZZC  45 h4
M  ZZC  46 c19
M  ZZC  47 h3
M  ZZC  48 c20
M  ZZC  49 h2
M  ZZM   1 13
M  ZZI   1 95
M  ZZM   2 63
M  ZZI   2 104
M  ZZM   3 64
M  ZZI   3 105
M  ZZM   4 5
M  ZZI   4 1
M  ZZM   5 64
M  ZZI   5 105
M  ZZM   6 5
M  ZZI   6 1
M  ZZM   7 63
M  ZZI   7 104
M  ZZM   8 59
M  ZZI   8 56
M  ZZM   9 3
M  ZZI   9 121
M  ZZM  10 7
M  ZZI  10 81
M  ZZM  11 10
M  ZZI  11 191
M  ZZM  12 28
M  ZZI  12 11
M  ZZM  13 63
M  ZZI  13 104
M  ZZM  14 64
M  ZZI  14 105
M  ZZM  15 1
M  ZZI  15 111
M  ZZM  16 5
M  ZZI  16 1
M  ZZM  17 5
M  ZZI  17 1
M  ZZM  18 5
M  ZZI  18 1
M  ZZM  19 64
M  ZZI  19 105
M  ZZM  20 5
M  ZZI  20 1
M  ZZM  21 65
M  ZZI  21 207
M  ZZM  22 39
M  ZZI  22 215
M  ZZM  23 1
M  ZZI  23 113
M  ZZM  24 5
M  ZZI  24 1
M  ZZM  25 1
M  ZZI  25 112
M  ZZM  26 5
M  ZZI  26 1
M  ZZM  27 5
M  ZZI  27 1
M  ZZM  28 1
M  ZZI  28 112
M  ZZM  29 5
M  ZZI  29 1
M  ZZM  30 5
M  ZZI  30 1
M  ZZM  31 34
M  ZZI  31 231
M  ZZM  32 36
M  ZZI  32 17
M  ZZM  33 1
M  ZZI  33 112
M  ZZM  34 5
M  ZZI  34 1
M  ZZM  35 5
M  ZZI  35 1
M  ZZM  36 1
M  ZZI  36 112
M  ZZM  37 5
M  ZZI  37 1
M  ZZM  38 5
M  ZZI  38 1
M  ZZM  39 37
M  ZZI  39 124
M  ZZM  40 37
M  ZZI  40 125
M  ZZM  41 5
M  ZZI  41 1
M  ZZM  42 37
M  ZZI  42 125
M  ZZM  43 5
M  ZZI  43 1
M  ZZM  44 37
M  ZZI  44 125
M  ZZM  45 5
M  ZZI  45 1
M  ZZM  46 37
M  ZZI  46 125
M  ZZM  47 5
M  ZZI  47 1
M  ZZM  48 37
M  ZZI  48 125
M  ZZM  49 5
M  ZZI  49 1
M  CHG  1  31   1
M  END
> <NAME>
Z1466142370

> <Score>
-27.18034

> <Natom>
49

> <Nflex>
3

> <Hbond>
-3.847802

> <Hphob>
-7.903482

> <VwInt>
-27.410749

> <Eintl>
9.86774

> <Dsolv>
10.100247

> <SolEl>
8.917418

> <mfScore>
-87.789826

> <RecConf>
1

> <molLogP>
2.811984

$$$$
Z1139321786
  MOLSOFT 11211612053D

 49 52  0  0  1  0  0  0  0  0999 V2000
  -34.0759    2.3573   68.6044 H   0  0  0
  -34.5076    2.5751   69.5720 C   0  0  0
  -35.1642    3.7687   69.8573 C   0  0  0
  -35.6235    4.0074   71.1477 C   0  0  0
  -36.1325    4.9321   71.4054 H   0  0  0
  -35.4642    3.0477   72.1265 C   0  0  0
  -35.8404    3.2285   73.1285 H   0  0  0
  -34.8293    1.8591   71.8344 C   0  0  0
  -34.7035    1.1067   72.6065 H   0  0  0
  -34.3464    1.6306   70.5634 C   0  0  0
  -33.8276    0.7051   70.3416 H   0  0  0
  -35.3697    4.7874   68.8863 N   0  0  0
  -35.2699    4.7527   67.5007 C   0  0  0
  -35.0596    3.5282   66.6792 C   0  0  0
  -34.0004    3.2804   66.5920 H   0  0  0
  -35.4368    3.6628   65.6641 H   0  0  0
  -35.5945    2.6702   67.0876 H   0  0  0
  -35.4497    6.0556   67.0683 C   0  0  0
  -35.7414    6.7783   68.2370 C   0  0  0
  -35.9880    7.8239   68.3427 H   0  0  0
  -35.7295    6.0166   69.3305 N   0  0  0
  -35.4323    6.4815   65.6846 C   0  0  0
  -36.2071    5.9816   64.8872 O   0  0  0
  -34.4642    7.3988   65.3000 N   0  0  0
  -33.7102    8.3116   66.1345 C   0  0  1
  -33.4685    7.8538   67.0990 H   0  0  0
  -32.4460    8.5371   65.3145 C   0  0  0
  -31.7633    7.6927   65.4482 H   0  0  0
  -31.8947    9.4451   65.5719 H   0  0  0
  -32.9557    8.5411   63.8891 C   0  0  0
  -32.1793    8.3128   63.1522 H   0  0  0
  -33.3636    9.5265   63.6501 H   0  0  0
  -34.0651    7.5072   63.9098 C   0  0  0
  -33.7066    6.5279   63.5776 H   0  0  0
  -34.9177    7.7889   63.2847 H   0  0  0
  -34.5410    9.5930   66.3339 C   0  0  0
  -34.7420   10.1113   65.3900 H   0  0  0
  -35.5203    9.3723   66.7686 H   0  0  0
  -33.9001   10.5511   67.2187 N   0  0  0
  -33.9705   10.5706   68.5866 C   0  0  0
  -34.5304    9.8332   69.1445 H   0  0  0
  -33.2076   11.6405   68.9886 C   0  0  0
  -32.9300   12.0918   70.3675 C   0  0  0
  -33.7924   12.6183   70.7838 H   0  0  0
  -32.0730   12.7704   70.3923 H   0  0  0
  -32.6997   11.2414   71.0155 H   0  0  0
  -32.7499   12.2100   67.7777 C   0  0  0
  -32.1199   13.0733   67.6458 H   0  0  0
  -33.1751   11.5576   66.6921 N   0  0  0
  2  1  1
  2  3  2
  2 10  1
  3  4  1
  3 12  1
  4  5  1
  4  6  2
  6  7  1
  6  8  1
  8  9  1
  8 10  2
 10 11  1
 12 13  1
 12 21  1
 13 14  1
 13 18  2
 14 15  1
 14 16  1
 14 17  1
 18 19  1
 18 22  1
 19 20  1
 19 21  2
 22 23  2
 22 24  1
 25 24  1
 24 33  1
 25 26  1
 25 27  1
 25 36  1
 27 28  1
 27 29  1
 27 30  1
 30 31  1
 30 32  1
 30 33  1
 33 34  1
 33 35  1
 36 37  1
 36 38  1
 36 39  1
 39 40  1
 39 49  1
 40 41  1
 40 42  2
 42 43  1
 42 47  1
 43 44  1
 43 45  1
 43 46  1
 47 48  1
 47 49  2
M  ZZC   1 h1
M  ZZC   2 c20
M  ZZC   3 c15
M  ZZC   4 c16
M  ZZC   5 h5
M  ZZC   6 c17
M  ZZC   7 h4
M  ZZC   8 c18
M  ZZC   9 h3
M  ZZC  10 c19
M  ZZC  11 h2
M  ZZC  12 n5
M  ZZC  13 c13
M  ZZC  14 c14
M  ZZC  15 h6
M  ZZC  16 h7
M  ZZC  17 h8
M  ZZC  18 c11
M  ZZC  19 c12
M  ZZC  20 h9
M  ZZC  21 n4
M  ZZC  22 c10
M  ZZC  23 o1
M  ZZC  24 n3
M  ZZC  25 c6
M  ZZC  26 h23
M  ZZC  27 c7
M  ZZC  28 h14
M  ZZC  29 h15
M  ZZC  30 c8
M  ZZC  31 h12
M  ZZC  32 h13
M  ZZC  33 c9
M  ZZC  34 h10
M  ZZC  35 h11
M  ZZC  36 c5
M  ZZC  37 h16
M  ZZC  38 h17
M  ZZC  39 n2
M  ZZC  40 c4
M  ZZC  41 h18
M  ZZC  42 c2
M  ZZC  43 c1
M  ZZC  44 h20
M  ZZC  45 h21
M  ZZC  46 h22
M  ZZC  47 c3
M  ZZC  48 h19
M  ZZC  49 n1
M  ZZM   1 5
M  ZZI   1 1
M  ZZM   2 37
M  ZZI   2 125
M  ZZM   3 37
M  ZZI   3 124
M  ZZM   4 37
M  ZZI   4 125
M  ZZM   5 5
M  ZZI   5 1
M  ZZM   6 37
M  ZZI   6 125
M  ZZM   7 5
M  ZZI   7 1
M  ZZM   8 37
M  ZZI   8 125
M  ZZM   9 5
M  ZZI   9 1
M  ZZM  10 37
M  ZZI  10 125
M  ZZM  11 5
M  ZZI  11 1
M  ZZM  12 39
M  ZZI  12 215
M  ZZM  13 63
M  ZZI  13 104
M  ZZM  14 1
M  ZZI  14 111
M  ZZM  15 5
M  ZZI  15 1
M  ZZM  16 5
M  ZZI  16 1
M  ZZM  17 5
M  ZZI  17 1
M  ZZM  18 64
M  ZZI  18 105
M  ZZM  19 64
M  ZZI  19 105
M  ZZM  20 5
M  ZZI  20 1
M  ZZM  21 65
M  ZZI  21 207
M  ZZM  22 3
M  ZZI  22 121
M  ZZM  23 7
M  ZZI  23 81
M  ZZM  24 10
M  ZZI  24 192
M  ZZM  25 1
M  ZZI  25 113
M  ZZM  26 5
M  ZZI  26 1
M  ZZM  27 1
M  ZZI  27 112
M  ZZM  28 5
M  ZZI  28 1
M  ZZM  29 5
M  ZZI  29 1
M  ZZM  30 1
M  ZZI  30 112
M  ZZM  31 5
M  ZZI  31 1
M  ZZM  32 5
M  ZZI  32 1
M  ZZM  33 1
M  ZZI  33 112
M  ZZM  34 5
M  ZZI  34 1
M  ZZM  35 5
M  ZZI  35 1
M  ZZM  36 1
M  ZZI  36 112
M  ZZM  37 5
M  ZZI  37 1
M  ZZM  38 5
M  ZZI  38 1
M  ZZM  39 39
M  ZZI  39 215
M  ZZM  40 63
M  ZZI  40 104
M  ZZM  41 5
M  ZZI  41 1
M  ZZM  42 64
M  ZZI  42 105
M  ZZM  43 1
M  ZZI  43 111
M  ZZM  44 5
M  ZZI  44 1
M  ZZM  45 5
M  ZZI  45 1
M  ZZM  46 5
M  ZZI  46 1
M  ZZM  47 64
M  ZZI  47 105
M  ZZM  48 5
M  ZZI  48 1
M  ZZM  49 65
M  ZZI  49 207
M  END
> <NAME>
Z1139321786

> <Score>
-26.702829

> <Natom>
49

> <Nflex>
4

> <Hbond>
-2.997486

> <Hphob>
-6.62245

> <VwInt>
-28.164269

> <Eintl>
7.175581

> <Dsolv>
9.907934

> <SolEl>
5.532077

> <mfScore>
-105.131698

> <RecConf>
1

> <molLogP>
2.096295

$$$$
Z1665076820
  MOLSOFT 11211612053D

 49 52  0  0  1  0  0  0  0  0999 V2000
  -33.6894   10.8059   64.7656 O   0  0  0
  -33.7736    9.8132   65.4735 C   0  0  0
  -33.1361    9.8644   66.8074 C   0  0  0
  -32.3466    8.8088   67.2564 C   0  0  0
  -32.1533    7.9389   66.6378 H   0  0  0
  -31.7839    8.8626   68.5142 C   0  0  0
  -31.1640    8.0524   68.8712 H   0  0  0
  -32.0172    9.9800   69.2858 C   0  0  0
  -32.7543   11.0323   68.8309 C   0  0  0
  -33.3318   11.0043   67.5785 C   0  0  0
  -33.9264   11.8424   67.2256 H   0  0  0
  -32.8215   12.1293   69.8346 C   0  0  0
  -33.8487   12.2990   70.1671 H   0  0  0
  -32.4180   13.0606   69.4281 H   0  0  0
  -31.9534   11.5776   70.9668 C   0  0  0
  -32.4993   11.5484   71.9160 H   0  0  0
  -31.0567   12.1891   71.1181 H   0  0  0
  -31.5504   10.2298   70.5814 N   0  0  0
  -30.8494    9.3085   71.3594 C   0  0  0
  -30.6299    8.1461   71.0433 O   0  0  0
  -30.3753    9.8459   72.6823 C   0  0  0
  -29.7907    9.0803   73.2010 H   0  0  0
  -31.2364   10.1117   73.2999 H   0  0  0
  -29.7413   10.7243   72.5297 H   0  0  0
  -34.5059    8.5496   65.0597 C   0  0  1
  -35.4859    8.8463   64.6713 H   0  0  0
  -33.6932    7.7709   64.0263 C   0  0  0
  -34.2375    6.8908   63.6754 H   0  0  0
  -32.7525    7.4070   64.4482 H   0  0  0
  -33.4526    8.3906   63.1585 H   0  0  0
  -34.6841    7.8040   66.2686 O   0  0  0
  -35.5743    6.7724   66.2356 C   0  0  0
  -36.2766    6.4204   65.2976 O   0  0  0
  -35.5029    6.1438   67.5654 C   0  0  0
  -35.6594    6.9567   68.6732 C   0  0  0
  -35.8399    8.0234   68.5742 H   0  0  0
  -35.6083    6.5173   69.9343 N   0  0  0
  -35.3576    5.2103   70.0789 C   0  0  0
  -35.3132    4.8778   71.1119 H   0  0  0
  -35.1438    4.3196   69.0371 C   0  0  0
  -35.2218    4.7913   67.7328 C   0  0  0
  -34.9782    3.9193   66.6817 C   0  0  0
  -35.0251    4.2459   65.6490 H   0  0  0
  -34.6484    2.6076   66.9356 C   0  0  0
  -34.4390    1.9466   66.1059 H   0  0  0
  -34.5814    2.1369   68.2289 C   0  0  0
  -34.3273    1.0983   68.4157 H   0  0  0
  -34.8371    2.9889   69.2820 C   0  0  0
  -34.7771    2.6071   70.2970 H   0  0  0
  2  1  2
  2  3  1
 25  2  1
  3  4  2
  3 10  1
  4  5  1
  4  6  1
  6  7  1
  6  8  2
  8  9  1
  8 18  1
  9 10  2
  9 12  1
 10 11  1
 12 13  1
 12 14  1
 12 15  1
 15 16  1
 15 17  1
 15 18  1
 18 19  1
 19 20  2
 19 21  1
 21 22  1
 21 23  1
 21 24  1
 25 26  1
 25 27  1
 25 31  1
 27 28  1
 27 29  1
 27 30  1
 31 32  1
 32 33  2
 32 34  1
 34 35  2
 34 41  1
 35 36  1
 35 37  1
 37 38  2
 38 39  1
 38 40  1
 40 41  2
 40 48  1
 41 42  1
 42 43  1
 42 44  2
 44 45  1
 44 46  1
 46 47  1
 46 48  2
 48 49  1
M  ZZC   1 o1
M  ZZC   2 c3
M  ZZC   3 c4
M  ZZC   4 c5
M  ZZC   5 h16
M  ZZC   6 c6
M  ZZC   7 h15
M  ZZC   8 c7
M  ZZC   9 c8
M  ZZC  10 c9
M  ZZC  11 h14
M  ZZC  12 c10
M  ZZC  13 h12
M  ZZC  14 h13
M  ZZC  15 c11
M  ZZC  16 h10
M  ZZC  17 h11
M  ZZC  18 n1
M  ZZC  19 c12
M  ZZC  20 o2
M  ZZC  21 c13
M  ZZC  22 h7
M  ZZC  23 h8
M  ZZC  24 h9
M  ZZC  25 c2
M  ZZC  26 h20
M  ZZC  27 c1
M  ZZC  28 h17
M  ZZC  29 h18
M  ZZC  30 h19
M  ZZC  31 o3
M  ZZC  32 c14
M  ZZC  33 o4
M  ZZC  34 c15
M  ZZC  35 c16
M  ZZC  36 h6
M  ZZC  37 n2
M  ZZC  38 c17
M  ZZC  39 h5
M  ZZC  40 c18
M  ZZC  41 c19
M  ZZC  42 c20
M  ZZC  43 h4
M  ZZC  44 c21
M  ZZC  45 h3
M  ZZC  46 c22
M  ZZC  47 h2
M  ZZC  48 c23
M  ZZC  49 h1
M  ZZM   1 7
M  ZZI   1 80
M  ZZM   2 3
M  ZZI   2 122
M  ZZM   3 37
M  ZZI   3 124
M  ZZM   4 37
M  ZZI   4 125
M  ZZM   5 5
M  ZZI   5 1
M  ZZM   6 37
M  ZZI   6 125
M  ZZM   7 5
M  ZZI   7 1
M  ZZM   8 37
M  ZZI   8 124
M  ZZM   9 37
M  ZZI   9 124
M  ZZM  10 37
M  ZZI  10 125
M  ZZM  11 5
M  ZZI  11 1
M  ZZM  12 1
M  ZZI  12 112
M  ZZM  13 5
M  ZZI  13 1
M  ZZM  14 5
M  ZZI  14 1
M  ZZM  15 1
M  ZZI  15 112
M  ZZM  16 5
M  ZZI  16 1
M  ZZM  17 5
M  ZZI  17 1
M  ZZM  18 10
M  ZZI  18 192
M  ZZM  19 3
M  ZZI  19 121
M  ZZM  20 7
M  ZZI  20 81
M  ZZM  21 1
M  ZZI  21 111
M  ZZM  22 5
M  ZZI  22 1
M  ZZM  23 5
M  ZZI  23 1
M  ZZM  24 5
M  ZZI  24 1
M  ZZM  25 1
M  ZZI  25 113
M  ZZM  26 5
M  ZZI  26 1
M  ZZM  27 1
M  ZZI  27 111
M  ZZM  28 5
M  ZZI  28 1
M  ZZM  29 5
M  ZZI  29 1
M  ZZM  30 5
M  ZZI  30 1
M  ZZM  31 6
M  ZZI  31 61
M  ZZM  32 3
M  ZZI  32 123
M  ZZM  33 7
M  ZZI  33 82
M  ZZM  34 37
M  ZZI  34 124
M  ZZM  35 37
M  ZZI  35 125
M  ZZM  36 5
M  ZZI  36 1
M  ZZM  37 38
M  ZZI  37 223
M  ZZM  38 37
M  ZZI  38 125
M  ZZM  39 5
M  ZZI  39 1
M  ZZM  40 37
M  ZZI  40 124
M  ZZM  41 37
M  ZZI  41 124
M  ZZM  42 37
M  ZZI  42 125
M  ZZM  43 5
M  ZZI  43 1
M  ZZM  44 37
M  ZZI  44 125
M  ZZM  45 5
M  ZZI  45 1
M  ZZM  46 37
M  ZZI  46 125
M  ZZM  47 5
M  ZZI  47 1
M  ZZM  48 37
M  ZZI  48 125
M  ZZM  49 5
M  ZZI  49 1
M  END
> <NAME>
Z1665076820

> <Score>
-26.694254

> <Natom>
49

> <Nflex>
3

> <Hbond>
-3.911251

> <Hphob>
-6.854158

> <VwInt>
-30.152713

> <Eintl>
8.199409

> <Dsolv>
13.967465

> <SolEl>
8.591834

> <mfScore>
-122.753148

> <RecConf>
1

> <molLogP>
2.864517

$$$$
Z26778601
  MOLSOFT 11211612053D

 49 51  0  0  0  0  0  0  0  0999 V2000
  -32.9662   10.9119   66.9813 O   0  0  0
  -32.4083    9.7963   67.7268 S   0  0  0
  -30.9806    9.6317   67.9264 O   0  0  0
  -33.0971    9.8347   69.3927 C   0  0  0
  -33.3179   11.0432   70.0555 C   0  0  0
  -33.1594   12.3948   69.4201 C   0  0  0
  -33.2607   13.1839   70.1672 H   0  0  0
  -33.9410   12.5592   68.6727 H   0  0  0
  -32.1773   12.5070   68.9566 H   0  0  0
  -33.7161   10.9769   71.3789 C   0  0  0
  -33.8592   11.8917   71.9467 H   0  0  0
  -33.9357    9.7657   72.0021 C   0  0  0
  -34.2567    9.7546   73.0396 H   0  0  0
  -33.7621    8.5735   71.3246 C   0  0  0
  -34.0402    7.2707   72.0131 C   0  0  0
  -33.7827    6.4216   71.3747 H   0  0  0
  -35.1031    7.1948   72.2631 H   0  0  0
  -33.4479    7.1890   72.9297 H   0  0  0
  -33.3256    8.6133   70.0133 C   0  0  0
  -33.1369    7.6798   69.4935 H   0  0  0
  -33.0081    8.4124   67.0787 O   0  0  0
  -32.8822    8.2214   65.7067 C   0  0  0
  -33.9339    7.6453   64.9993 C   0  0  0
  -33.8431    7.5349   63.6198 C   0  0  0
  -34.6534    7.1128   63.0351 H   0  0  0
  -32.7032    7.9515   62.9688 C   0  0  0
  -32.6275    7.8483   61.8929 H   0  0  0
  -31.6418    8.4671   63.6750 C   0  0  0
  -30.7378    8.7635   63.1520 H   0  0  0
  -31.7254    8.6006   65.0425 C   0  0  0
  -30.8661    8.9921   65.5742 H   0  0  0
  -35.1642    7.1121   65.6460 C   0  0  0
  -36.1155    6.8171   64.9414 O   0  0  0
  -35.1140    6.9189   67.0076 N   0  0  0
  -34.2753    7.1504   67.5219 H   0  0  0
  -36.1477    6.2004   67.7173 C   0  0  0
  -37.0468    6.1106   67.0989 H   0  0  0
  -36.4022    6.7950   68.5994 H   0  0  0
  -35.6530    4.8385   68.1242 C   0  0  0
  -35.1856    3.9411   67.1694 C   0  0  0
  -35.1972    4.2008   66.1150 H   0  0  0
  -34.6903    2.7106   67.5446 C   0  0  0
  -34.3174    2.0192   66.7977 H   0  0  0
  -34.6748    2.3641   68.8753 C   0  0  0
  -34.1909    1.1670   69.2407 F   0  0  0
  -35.1512    3.2267   69.8370 C   0  0  0
  -35.1362    2.9323   70.8807 H   0  0  0
  -35.6405    4.4632   69.4617 C   0  0  0
  -36.0103    5.1389   70.2277 H   0  0  0
  2  1  2
  2  3  2
  2  4  1
  2 21  1
  4  5  2
  4 19  1
  5  6  1
  5 10  1
  6  7  1
  6  8  1
  6  9  1
 10 11  1
 10 12  2
 12 13  1
 12 14  1
 14 15  1
 14 19  2
 15 16  1
 15 17  1
 15 18  1
 19 20  1
 21 22  1
 22 23  1
 22 30  2
 23 24  2
 23 32  1
 24 25  1
 24 26  1
 26 27  1
 26 28  2
 28 29  1
 28 30  1
 30 31  1
 32 33  2
 32 34  1
 34 35  1
 34 36  1
 36 37  1
 36 38  1
 36 39  1
 39 40  2
 39 48  1
 40 41  1
 40 42  1
 42 43  1
 42 44  2
 44 45  1
 44 46  1
 46 47  1
 46 48  2
 48 49  1
M  ZZC   1 o1
M  ZZC   2 s1
M  ZZC   3 o2
M  ZZC   4 c6
M  ZZC   5 c5
M  ZZC   6 c22
M  ZZC   7 h1
M  ZZC   8 h2
M  ZZC   9 h3
M  ZZC  10 c4
M  ZZC  11 h16
M  ZZC  12 c3
M  ZZC  13 h17
M  ZZC  14 c2
M  ZZC  15 c1
M  ZZC  16 h18
M  ZZC  17 h19
M  ZZC  18 h20
M  ZZC  19 c7
M  ZZC  20 h15
M  ZZC  21 o3
M  ZZC  22 c8
M  ZZC  23 c13
M  ZZC  24 c12
M  ZZC  25 h11
M  ZZC  26 c11
M  ZZC  27 h12
M  ZZC  28 c10
M  ZZC  29 h13
M  ZZC  30 c9
M  ZZC  31 h14
M  ZZC  32 c14
M  ZZC  33 o4
M  ZZC  34 n1
M  ZZC  35 h10
M  ZZC  36 c15
M  ZZC  37 h8
M  ZZC  38 h9
M  ZZC  39 c16
M  ZZC  40 c17
M  ZZC  41 h7
M  ZZC  42 c18
M  ZZC  43 h6
M  ZZC  44 c19
M  ZZC  45 f1
M  ZZC  46 c20
M  ZZC  47 h5
M  ZZC  48 c21
M  ZZC  49 h4
M  ZZM   1 32
M  ZZI   1 73
M  ZZM   2 18
M  ZZI   2 250
M  ZZM   3 32
M  ZZI   3 73
M  ZZM   4 37
M  ZZI   4 124
M  ZZM   5 37
M  ZZI   5 124
M  ZZM   6 1
M  ZZI   6 111
M  ZZM   7 5
M  ZZI   7 1
M  ZZM   8 5
M  ZZI   8 1
M  ZZM   9 5
M  ZZI   9 1
M  ZZM  10 37
M  ZZI  10 125
M  ZZM  11 5
M  ZZI  11 1
M  ZZM  12 37
M  ZZI  12 125
M  ZZM  13 5
M  ZZI  13 1
M  ZZM  14 37
M  ZZI  14 124
M  ZZM  15 1
M  ZZI  15 111
M  ZZM  16 5
M  ZZI  16 1
M  ZZM  17 5
M  ZZI  17 1
M  ZZM  18 5
M  ZZI  18 1
M  ZZM  19 37
M  ZZI  19 125
M  ZZM  20 5
M  ZZI  20 1
M  ZZM  21 6
M  ZZI  21 59
M  ZZM  22 37
M  ZZI  22 124
M  ZZM  23 37
M  ZZI  23 124
M  ZZM  24 37
M  ZZI  24 125
M  ZZM  25 5
M  ZZI  25 1
M  ZZM  26 37
M  ZZI  26 125
M  ZZM  27 5
M  ZZI  27 1
M  ZZM  28 37
M  ZZI  28 125
M  ZZM  29 5
M  ZZI  29 1
M  ZZM  30 37
M  ZZI  30 125
M  ZZM  31 5
M  ZZI  31 1
M  ZZM  32 3
M  ZZI  32 121
M  ZZM  33 7
M  ZZI  33 81
M  ZZM  34 10
M  ZZI  34 211
M  ZZM  35 28
M  ZZI  35 11
M  ZZM  36 1
M  ZZI  36 112
M  ZZM  37 5
M  ZZI  37 1
M  ZZM  38 5
M  ZZI  38 1
M  ZZM  39 37
M  ZZI  39 124
M  ZZM  40 37
M  ZZI  40 125
M  ZZM  41 5
M  ZZI  41 1
M  ZZM  42 37
M  ZZI  42 125
M  ZZM  43 5
M  ZZI  43 1
M  ZZM  44 37
M  ZZI  44 124
M  ZZM  45 11
M  ZZI  45 90
M  ZZM  46 37
M  ZZI  46 125
M  ZZM  47 5
M  ZZI  47 1
M  ZZM  48 37
M  ZZI  48 125
M  ZZM  49 5
M  ZZI  49 1
M  END
> <NAME>
Z26778601

> <Score>
-26.67358

> <Natom>
49

> <Nflex>
4

> <Hbond>
-1.629384

> <Hphob>
-7.00848

> <VwInt>
-31.327009

> <Eintl>
9.227482

> <Dsolv>
9.036282

> <SolEl>
6.506425

> <mfScore>
-103.177902

> <RecConf>
1

> <molLogP>
4.510175

$$$$
Z238885574
  MOLSOFT 11211612053D

 49 51  0  0  1  0  0  0  0  0999 V2000
  -35.2071    4.2760   70.9259 Cl  0  0  0
  -35.0191    3.7975   69.2728 C   0  0  0
  -35.6164    4.4980   68.2282 C   0  0  0
  -35.4220    4.0708   66.9189 C   0  0  0
  -35.9091    4.5668   66.0850 H   0  0  0
  -34.6290    2.9721   66.6637 C   0  0  0
  -34.4761    2.6435   65.6420 H   0  0  0
  -34.0448    2.2792   67.7030 C   0  0  0
  -33.4262    1.4117   67.4977 H   0  0  0
  -34.2383    2.6895   69.0046 C   0  0  0
  -33.7715    2.1352   69.8128 H   0  0  0
  -36.5477    5.6313   68.4972 C   0  0  0
  -37.4641    5.4756   69.5037 N   0  0  0
  -38.2038    6.1636   69.6220 H   0  0  0
  -37.4598    4.6790   70.1351 H   0  0  0
  -36.5404    6.7276   67.8059 N   0  0  0
  -35.4714    6.7577   66.8907 O   0  0  0
  -35.5131    8.0055   66.1824 C   0  0  2
  -36.6593    8.0982   65.3363 O   0  0  0
  -37.4261    8.1886   65.9311 H   0  0  0
  -34.2873    8.1104   65.3398 C   0  0  0
  -33.9595    7.4168   64.1933 C   0  0  0
  -34.6330    6.6821   63.7693 H   0  0  0
  -32.7636    7.7182   63.5754 C   0  0  0
  -32.5111    7.2272   62.6440 H   0  0  0
  -31.8870    8.6392   64.1245 C   0  0  0
  -30.9368    8.8243   63.6336 H   0  0  0
  -32.2279    9.3330   65.2730 C   0  0  0
  -31.5592   10.0622   65.7092 H   0  0  0
  -33.4600    9.0762   65.8303 C   0  0  0
  -34.0875    9.7346   66.8948 N   0  0  0
  -35.3313    9.1903   67.1319 C   0  0  0
  -36.1439    9.6050   67.9443 O   0  0  0
  -33.5785   10.9089   67.5953 C   0  0  0
  -32.8127   11.4109   66.9974 H   0  0  0
  -34.4140   11.6094   67.6986 H   0  0  0
  -33.0494   10.5528   68.9787 C   0  0  0
  -33.7668    9.9124   69.5034 H   0  0  0
  -32.1299    9.9663   68.8740 H   0  0  0
  -32.7902   11.8036   69.8113 C   0  0  0
  -32.1240   12.4794   69.2681 H   0  0  0
  -33.7273   12.3496   69.9623 H   0  0  0
  -32.1816   11.4403   71.1615 C   0  0  0
  -32.8714   10.7969   71.7173 H   0  0  0
  -31.2585   10.8699   71.0136 H   0  0  0
  -31.8717   12.6731   71.9895 C   0  0  0
  -31.1318   13.3034   71.4879 H   0  0  0
  -31.4621   12.3861   72.9619 H   0  0  0
  -32.7738   13.2672   72.1645 H   0  0  0
  2  1  1
  2  3  1
  2 10  2
  3  4  2
  3 12  1
  4  5  1
  4  6  1
  6  7  1
  6  8  2
  8  9  1
  8 10  1
 10 11  1
 12 13  1
 12 16  2
 13 14  1
 13 15  1
 16 17  1
 18 17  1
 18 19  1
 18 21  1
 18 32  1
 19 20  1
 21 22  1
 21 30  2
 22 23  1
 22 24  2
 24 25  1
 24 26  1
 26 27  1
 26 28  2
 28 29  1
 28 30  1
 30 31  1
 31 32  1
 31 34  1
 32 33  2
 34 35  1
 34 36  1
 34 37  1
 37 38  1
 37 39  1
 37 40  1
 40 41  1
 40 42  1
 40 43  1
 43 44  1
 43 45  1
 43 46  1
 46 47  1
 46 48  1
 46 49  1
M  ZZC   1 &Cl1
M  ZZC   2 c20
M  ZZC   3 c15
M  ZZC   4 c16
M  ZZC   5 h6
M  ZZC   6 c17
M  ZZC   7 h5
M  ZZC   8 c18
M  ZZC   9 h4
M  ZZC  10 c19
M  ZZC  11 h3
M  ZZC  12 c14
M  ZZC  13 n3
M  ZZC  14 h1
M  ZZC  15 h2
M  ZZC  16 n2
M  ZZC  17 o3
M  ZZC  18 c12
M  ZZC  19 o2
M  ZZC  20 h7
M  ZZC  21 c11
M  ZZC  22 c10
M  ZZC  23 h8
M  ZZC  24 c9
M  ZZC  25 h9
M  ZZC  26 c8
M  ZZC  27 h10
M  ZZC  28 c7
M  ZZC  29 h11
M  ZZC  30 c6
M  ZZC  31 n1
M  ZZC  32 c13
M  ZZC  33 o1
M  ZZC  34 c5
M  ZZC  35 h12
M  ZZC  36 h13
M  ZZC  37 c4
M  ZZC  38 h14
M  ZZC  39 h15
M  ZZC  40 c3
M  ZZC  41 h16
M  ZZC  42 h17
M  ZZC  43 c2
M  ZZC  44 h18
M  ZZC  45 h19
M  ZZC  46 c1
M  ZZC  47 h20
M  ZZC  48 h21
M  ZZC  49 h22
M  ZZM   1 12
M  ZZI   1 92
M  ZZM   2 37
M  ZZI   2 124
M  ZZM   3 37
M  ZZI   3 124
M  ZZM   4 37
M  ZZI   4 125
M  ZZM   5 5
M  ZZI   5 1
M  ZZM   6 37
M  ZZI   6 125
M  ZZM   7 5
M  ZZI   7 1
M  ZZM   8 37
M  ZZI   8 125
M  ZZM   9 5
M  ZZI   9 1
M  ZZM  10 37
M  ZZI  10 125
M  ZZM  11 5
M  ZZI  11 1
M  ZZM  12 3
M  ZZI  12 121
M  ZZM  13 40
M  ZZI  13 224
M  ZZM  14 28
M  ZZI  14 11
M  ZZM  15 28
M  ZZI  15 11
M  ZZM  16 9
M  ZZI  16 220
M  ZZM  17 6
M  ZZI  17 65
M  ZZM  18 1
M  ZZI  18 110
M  ZZM  19 6
M  ZZI  19 60
M  ZZM  20 21
M  ZZI  20 20
M  ZZM  21 37
M  ZZI  21 124
M  ZZM  22 37
M  ZZI  22 125
M  ZZM  23 5
M  ZZI  23 1
M  ZZM  24 37
M  ZZI  24 125
M  ZZM  25 5
M  ZZI  25 1
M  ZZM  26 37
M  ZZI  26 125
M  ZZM  27 5
M  ZZI  27 1
M  ZZM  28 37
M  ZZI  28 125
M  ZZM  29 5
M  ZZI  29 1
M  ZZM  30 37
M  ZZI  30 124
M  ZZM  31 10
M  ZZI  31 192
M  ZZM  32 3
M  ZZI  32 121
M  ZZM  33 7
M  ZZI  33 81
M  ZZM  34 1
M  ZZI  34 112
M  ZZM  35 5
M  ZZI  35 1
M  ZZM  36 5
M  ZZI  36 1
M  ZZM  37 1
M  ZZI  37 112
M  ZZM  38 5
M  ZZI  38 1
M  ZZM  39 5
M  ZZI  39 1
M  ZZM  40 1
M  ZZI  40 112
M  ZZM  41 5
M  ZZI  41 1
M  ZZM  42 5
M  ZZI  42 1
M  ZZM  43 1
M  ZZI  43 112
M  ZZM  44 5
M  ZZI  44 1
M  ZZM  45 5
M  ZZI  45 1
M  ZZM  46 1
M  ZZI  46 111
M  ZZM  47 5
M  ZZI  47 1
M  ZZM  48 5
M  ZZI  48 1
M  ZZM  49 5
M  ZZI  49 1
M  END
> <NAME>
Z238885574

> <Score>
-25.723832

> <Natom>
49

> <Nflex>
6

> <Hbond>
-4.848271

> <Hphob>
-6.356719

> <VwInt>
-29.403279

> <Eintl>
8.77045

> <Dsolv>
15.549193

> <SolEl>
7.48891

> <mfScore>
-111.506287

> <RecConf>
1

> <molLogP>
3.683848

$$$$
Z227113402
  MOLSOFT 11211612053D

 49 51  0  0  0  0  0  0  0  0999 V2000
  -31.2549    9.8154   67.9909 O   0  0  0
  -32.5558   10.0707   67.4032 S   0  0  0
  -32.9885   11.4236   67.1082 O   0  0  0
  -33.7204    9.2930   68.4099 N   0  0  0
  -34.0810   10.0834   69.6138 C   0  0  0
  -33.2350   10.1548   70.3045 H   0  0  0
  -34.9174    9.6071   70.1317 H   0  0  0
  -34.3978   11.0877   69.3212 H   0  0  0
  -33.3991    7.8849   68.7758 C   0  0  0
  -34.2380    7.4484   69.3238 H   0  0  0
  -32.5116    7.8386   69.4143 H   0  0  0
  -33.2363    7.2803   67.8804 H   0  0  0
  -32.6368    9.1679   65.8329 C   0  0  0
  -31.4407    8.6852   65.3232 C   0  0  0
  -30.5092    8.7847   65.8725 H   0  0  0
  -31.4152    8.0907   64.0821 C   0  0  0
  -30.4779    7.7311   63.6681 H   0  0  0
  -32.5789    7.9588   63.3613 C   0  0  0
  -32.5607    7.4951   62.3813 H   0  0  0
  -33.7709    8.4152   63.8729 C   0  0  0
  -34.6704    8.2755   63.2808 H   0  0  0
  -33.8316    9.0415   65.1103 C   0  0  0
  -35.1755    9.5052   65.6056 C   0  0  0
  -35.1072   10.4918   66.0657 H   0  0  0
  -35.8770    9.5922   64.7708 H   0  0  0
  -35.7339    8.5896   66.5707 N   0  0  0
  -35.5858    8.8028   67.5526 H   0  0  0
  -36.3378    7.4115   66.1856 C   0  0  0
  -36.4453    7.0619   65.0209 O   0  0  0
  -36.8539    6.5707   67.3297 C   0  0  0
  -36.8969    7.1964   68.2219 H   0  0  0
  -37.8809    6.2738   67.1007 H   0  0  0
  -36.0224    5.3536   67.6394 C   0  0  0
  -35.4565    4.5643   66.6479 C   0  0  0
  -35.5704    4.8187   65.5996 H   0  0  0
  -34.7425    3.4298   66.9735 C   0  0  0
  -34.3073    2.8334   66.1772 H   0  0  0
  -34.5965    3.0496   68.2973 C   0  0  0
  -33.8858    1.9103   68.6391 C   0  0  0
  -33.4223    1.2958   67.8734 H   0  0  0
  -33.7622    1.5466   69.9643 C   0  0  0
  -33.2043    0.6597   70.2336 H   0  0  0
  -34.3432    2.3068   70.9552 C   0  0  0
  -34.2438    2.0122   71.9951 H   0  0  0
  -35.0513    3.4415   70.6230 C   0  0  0
  -35.5067    4.0308   71.4132 H   0  0  0
  -35.1779    3.8180   69.2947 C   0  0  0
  -35.8893    4.9566   68.9600 C   0  0  0
  -36.3569    5.5432   69.7459 H   0  0  0
  2  1  2
  2  3  2
  2  4  1
  2 13  1
  4  5  1
  4  9  1
  5  6  1
  5  7  1
  5  8  1
  9 10  1
  9 11  1
  9 12  1
 13 14  2
 13 22  1
 14 15  1
 14 16  1
 16 17  1
 16 18  2
 18 19  1
 18 20  1
 20 21  1
 20 22  2
 22 23  1
 23 24  1
 23 25  1
 23 26  1
 26 27  1
 26 28  1
 28 29  2
 28 30  1
 30 31  1
 30 32  1
 30 33  1
 33 34  1
 33 48  2
 34 35  1
 34 36  2
 36 37  1
 36 38  1
 38 39  2
 38 47  1
 39 40  1
 39 41  1
 41 42  1
 41 43  2
 43 44  1
 43 45  1
 45 46  1
 45 47  2
 47 48  1
 48 49  1
M  ZZC   1 o1
M  ZZC   2 s1
M  ZZC   3 o2
M  ZZC   4 n1
M  ZZC   5 c1
M  ZZC   6 h20
M  ZZC   7 h21
M  ZZC   8 h22
M  ZZC   9 c2
M  ZZC  10 h17
M  ZZC  11 h18
M  ZZC  12 h19
M  ZZC  13 c3
M  ZZC  14 c4
M  ZZC  15 h16
M  ZZC  16 c5
M  ZZC  17 h15
M  ZZC  18 c6
M  ZZC  19 h14
M  ZZC  20 c7
M  ZZC  21 h13
M  ZZC  22 c8
M  ZZC  23 c9
M  ZZC  24 h11
M  ZZC  25 h12
M  ZZC  26 n2
M  ZZC  27 h10
M  ZZC  28 c10
M  ZZC  29 o3
M  ZZC  30 c11
M  ZZC  31 h8
M  ZZC  32 h9
M  ZZC  33 c12
M  ZZC  34 c13
M  ZZC  35 h7
M  ZZC  36 c14
M  ZZC  37 h6
M  ZZC  38 c15
M  ZZC  39 c16
M  ZZC  40 h5
M  ZZC  41 c17
M  ZZC  42 h4
M  ZZC  43 c18
M  ZZC  44 h3
M  ZZC  45 c19
M  ZZC  46 h2
M  ZZC  47 c20
M  ZZC  48 c21
M  ZZC  49 h1
M  ZZM   1 32
M  ZZI   1 73
M  ZZM   2 18
M  ZZI   2 250
M  ZZM   3 32
M  ZZI   3 73
M  ZZM   4 43
M  ZZI   4 195
M  ZZM   5 1
M  ZZI   5 111
M  ZZM   6 5
M  ZZI   6 1
M  ZZM   7 5
M  ZZI   7 1
M  ZZM   8 5
M  ZZI   8 1
M  ZZM   9 1
M  ZZI   9 111
M  ZZM  10 5
M  ZZI  10 1
M  ZZM  11 5
M  ZZI  11 1
M  ZZM  12 5
M  ZZI  12 1
M  ZZM  13 37
M  ZZI  13 124
M  ZZM  14 37
M  ZZI  14 125
M  ZZM  15 5
M  ZZI  15 1
M  ZZM  16 37
M  ZZI  16 125
M  ZZM  17 5
M  ZZI  17 1
M  ZZM  18 37
M  ZZI  18 125
M  ZZM  19 5
M  ZZI  19 1
M  ZZM  20 37
M  ZZI  20 125
M  ZZM  21 5
M  ZZI  21 1
M  ZZM  22 37
M  ZZI  22 124
M  ZZM  23 1
M  ZZI  23 112
M  ZZM  24 5
M  ZZI  24 1
M  ZZM  25 5
M  ZZI  25 1
M  ZZM  26 10
M  ZZI  26 211
M  ZZM  27 28
M  ZZI  27 11
M  ZZM  28 3
M  ZZI  28 121
M  ZZM  29 7
M  ZZI  29 81
M  ZZM  30 1
M  ZZI  30 112
M  ZZM  31 5
M  ZZI  31 1
M  ZZM  32 5
M  ZZI  32 1
M  ZZM  33 37
M  ZZI  33 124
M  ZZM  34 37
M  ZZI  34 125
M  ZZM  35 5
M  ZZI  35 1
M  ZZM  36 37
M  ZZI  36 125
M  ZZM  37 5
M  ZZI  37 1
M  ZZM  38 37
M  ZZI  38 124
M  ZZM  39 37
M  ZZI  39 125
M  ZZM  40 5
M  ZZI  40 1
M  ZZM  41 37
M  ZZI  41 125
M  ZZM  42 5
M  ZZI  42 1
M  ZZM  43 37
M  ZZI  43 125
M  ZZM  44 5
M  ZZI  44 1
M  ZZM  45 37
M  ZZI  45 125
M  ZZM  46 5
M  ZZI  46 1
M  ZZM  47 37
M  ZZI  47 124
M  ZZM  48 37
M  ZZI  48 125
M  ZZM  49 5
M  ZZI  49 1
M  END
> <NAME>
Z227113402

> <Score>
-25.364038

> <Natom>
49

> <Nflex>
6

> <Hbond>
-1.525797

> <Hphob>
-7.529071

> <VwInt>
-30.225347

> <Eintl>
5.973353

> <Dsolv>
8.634208

> <SolEl>
5.591511

> <mfScore>
-112.714804

> <RecConf>
1

> <molLogP>
3.836083

$$$$
Z18027499
  MOLSOFT 11211612053D

 49 51  0  0  1  0  0  0  0  0999 V2000
  -35.6562    9.6779   67.6130 Cl  0  0  0
  -34.2830    9.1881   66.6829 C   0  0  0
  -32.9762    9.3472   67.1545 C   0  0  0
  -31.9370    8.8907   66.3486 C   0  0  0
  -30.9059    8.9812   66.6774 H   0  0  0
  -32.1845    8.3008   65.1253 C   0  0  0
  -31.3571    7.9509   64.5154 H   0  0  0
  -33.4818    8.1524   64.6884 C   0  0  0
  -33.7946    7.3842   63.1797 Cl  0  0  0
  -34.5312    8.6043   65.4567 C   0  0  0
  -35.5515    8.4851   65.1048 H   0  0  0
  -32.6382    9.9755   68.4917 C   0  0  1
  -31.5627    9.8559   68.6594 H   0  0  0
  -32.9350   11.4765   68.5240 C   0  0  0
  -32.5897   11.9179   69.4641 H   0  0  0
  -34.0022   11.6988   68.4476 H   0  0  0
  -32.4345   11.9963   67.7008 H   0  0  0
  -33.3113    9.2846   69.5775 N   0  0  0
  -34.3137    9.4155   69.6732 H   0  0  0
  -32.6895    8.3244   70.3560 C   0  0  0
  -31.5221    7.9799   70.2303 O   0  0  0
  -33.5769    7.7274   71.4372 C   0  0  1
  -33.0008    6.9364   71.9291 H   0  0  0
  -33.9675    8.7992   72.4499 C   0  0  0
  -34.5758    8.3773   73.2554 H   0  0  0
  -34.5315    9.6058   71.9732 H   0  0  0
  -33.0854    9.2575   72.9049 H   0  0  0
  -34.7539    7.1768   70.8169 O   0  0  0
  -35.2934    6.1191   71.4981 C   0  0  0
  -34.8527    5.6595   72.5423 O   0  0  0
  -36.5319    5.5998   70.8213 C   0  0  0
  -37.3727    6.2293   71.1312 H   0  0  0
  -36.7440    4.5877   71.1797 H   0  0  0
  -36.4521    5.5884   69.3134 C   0  0  0
  -35.6472    4.5534   68.6242 C   0  0  0
  -34.9758    3.5447   69.3077 C   0  0  0
  -34.9880    3.4696   70.3894 H   0  0  0
  -34.2742    2.5905   68.5980 C   0  0  0
  -33.7529    1.7962   69.1236 H   0  0  0
  -34.2360    2.6351   67.2205 C   0  0  0
  -33.6883    1.8774   66.6713 H   0  0  0
  -34.8928    3.6381   66.5397 C   0  0  0
  -34.8590    3.6551   65.4582 H   0  0  0
  -35.5967    4.5973   67.2476 C   0  0  0
  -36.3274    5.6584   66.5344 C   0  0  0
  -36.2933    5.7430   65.3154 O   0  0  0
  -37.0543    6.5191   67.3156 N   0  0  0
  -37.6040    7.2405   66.8557 H   0  0  0
  -37.1141    6.5053   68.6807 N   0  0  0
  2  1  1
  2  3  1
  2 10  2
  3  4  2
 12  3  1
  4  5  1
  4  6  1
  6  7  1
  6  8  2
  8  9  1
  8 10  1
 10 11  1
 12 13  1
 12 14  1
 12 18  1
 14 15  1
 14 16  1
 14 17  1
 18 19  1
 18 20  1
 20 21  2
 22 20  1
 22 23  1
 22 24  1
 22 28  1
 24 25  1
 24 26  1
 24 27  1
 28 29  1
 29 30  2
 29 31  1
 31 32  1
 31 33  1
 31 34  1
 34 35  1
 34 49  2
 35 36  2
 35 44  1
 36 37  1
 36 38  1
 38 39  1
 38 40  2
 40 41  1
 40 42  1
 42 43  1
 42 44  2
 44 45  1
 45 46  2
 45 47  1
 47 48  1
 47 49  1
M  ZZC   1 &Cl1
M  ZZC   2 c8
M  ZZC   3 c3
M  ZZC   4 c4
M  ZZC   5 h13
M  ZZC   6 c5
M  ZZC   7 h12
M  ZZC   8 c6
M  ZZC   9 &Cl2
M  ZZC  10 c7
M  ZZC  11 h11
M  ZZC  12 c2
M  ZZC  13 h19
M  ZZC  14 c1
M  ZZC  15 h14
M  ZZC  16 h15
M  ZZC  17 h16
M  ZZC  18 n1
M  ZZC  19 h10
M  ZZC  20 c9
M  ZZC  21 o1
M  ZZC  22 c10
M  ZZC  23 h18
M  ZZC  24 c11
M  ZZC  25 h7
M  ZZC  26 h8
M  ZZC  27 h9
M  ZZC  28 o2
M  ZZC  29 c12
M  ZZC  30 o3
M  ZZC  31 c13
M  ZZC  32 h5
M  ZZC  33 h6
M  ZZC  34 c14
M  ZZC  35 c15
M  ZZC  36 c16
M  ZZC  37 h4
M  ZZC  38 c17
M  ZZC  39 h3
M  ZZC  40 c18
M  ZZC  41 h2
M  ZZC  42 c19
M  ZZC  43 h1
M  ZZC  44 c20
M  ZZC  45 c21
M  ZZC  46 o4
M  ZZC  47 n2
M  ZZC  48 h17
M  ZZC  49 n3
M  ZZM   1 12
M  ZZI   1 92
M  ZZM   2 37
M  ZZI   2 124
M  ZZM   3 37
M  ZZI   3 124
M  ZZM   4 37
M  ZZI   4 125
M  ZZM   5 5
M  ZZI   5 1
M  ZZM   6 37
M  ZZI   6 125
M  ZZM   7 5
M  ZZI   7 1
M  ZZM   8 37
M  ZZI   8 124
M  ZZM   9 12
M  ZZI   9 92
M  ZZM  10 37
M  ZZI  10 125
M  ZZM  11 5
M  ZZI  11 1
M  ZZM  12 1
M  ZZI  12 113
M  ZZM  13 5
M  ZZI  13 1
M  ZZM  14 1
M  ZZI  14 111
M  ZZM  15 5
M  ZZI  15 1
M  ZZM  16 5
M  ZZI  16 1
M  ZZM  17 5
M  ZZI  17 1
M  ZZM  18 10
M  ZZI  18 211
M  ZZM  19 28
M  ZZI  19 11
M  ZZM  20 3
M  ZZI  20 121
M  ZZM  21 7
M  ZZI  21 81
M  ZZM  22 1
M  ZZI  22 113
M  ZZM  23 5
M  ZZI  23 1
M  ZZM  24 1
M  ZZI  24 111
M  ZZM  25 5
M  ZZI  25 1
M  ZZM  26 5
M  ZZI  26 1
M  ZZM  27 5
M  ZZI  27 1
M  ZZM  28 6
M  ZZI  28 61
M  ZZM  29 3
M  ZZI  29 123
M  ZZM  30 7
M  ZZI  30 82
M  ZZM  31 1
M  ZZI  31 112
M  ZZM  32 5
M  ZZI  32 1
M  ZZM  33 5
M  ZZI  33 1
M  ZZM  34 3
M  ZZI  34 121
M  ZZM  35 37
M  ZZI  35 124
M  ZZM  36 37
M  ZZI  36 125
M  ZZM  37 5
M  ZZI  37 1
M  ZZM  38 37
M  ZZI  38 125
M  ZZM  39 5
M  ZZI  39 1
M  ZZM  40 37
M  ZZI  40 125
M  ZZM  41 5
M  ZZI  41 1
M  ZZM  42 37
M  ZZI  42 125
M  ZZM  43 5
M  ZZI  43 1
M  ZZM  44 37
M  ZZI  44 124
M  ZZM  45 3
M  ZZI  45 121
M  ZZM  46 7
M  ZZI  46 81
M  ZZM  47 10
M  ZZI  47 191
M  ZZM  48 28
M  ZZI  48 11
M  ZZM  49 9
M  ZZI  49 220
M  END
> <NAME>
Z18027499

> <Score>
-25.268127

> <Natom>
49

> <Nflex>
6

> <Hbond>
-3.764124

> <Hphob>
-6.774039

> <VwInt>
-31.096677

> <Eintl>
4.453304

> <Dsolv>
14.514662

> <SolEl>
8.188474

> <mfScore>
-113.749977

> <RecConf>
1

> <molLogP>
3.631059

$$$$
Z1524834879
  MOLSOFT 11211612053D

 49 52  0  0  0  0  0  0  0  0999 V2000
  -33.7262    2.9176   69.8956 H   0  0  0
  -34.7689    2.6509   69.6962 C   0  0  0
  -34.8377    2.3406   68.6505 H   0  0  0
  -35.1496    1.4664   70.5723 C   0  0  0
  -36.1261    1.0598   70.2881 H   0  0  0
  -34.4100    0.6744   70.4427 H   0  0  0
  -35.1686    1.8243   71.9613 O   0  0  0
  -36.1546    2.8404   72.1872 C   0  0  0
  -37.1395    2.4677   71.8909 H   0  0  0
  -36.1928    3.0420   73.2609 H   0  0  0
  -35.8040    4.1134   71.4301 C   0  0  0
  -36.6159    4.8338   71.5777 H   0  0  0
  -34.8784    4.5340   71.8407 H   0  0  0
  -35.6114    3.8176   70.0016 N   0  0  0
  -35.5452    4.9013   69.0825 C   0  0  0
  -35.5772    4.6780   67.7154 C   0  0  0
  -35.7052    3.6737   67.3266 H   0  0  0
  -35.4685    5.7077   66.8067 C   0  0  0
  -35.4783    5.4478   65.7550 H   0  0  0
  -35.3036    7.0161   67.2318 C   0  0  0
  -35.2864    7.2641   68.6015 C   0  0  0
  -35.4408    6.2197   69.5052 C   0  0  0
  -35.4568    6.4326   70.5653 H   0  0  0
  -35.1011    8.6557   69.0969 C   0  0  0
  -35.3700    9.6119   68.3868 O   0  0  0
  -34.5923    8.8006   70.3600 N   0  0  0
  -34.4573    9.7367   70.7220 H   0  0  0
  -34.2830    8.0390   70.9500 H   0  0  0
  -35.0732    8.0682   66.3106 N   0  0  0
  -34.8448    8.9823   66.6918 H   0  0  0
  -35.1448    7.9349   64.9376 C   0  0  0
  -35.7463    7.0431   64.3575 O   0  0  0
  -34.4358    9.0353   64.1785 C   0  0  0
  -34.6752    8.9131   63.1220 H   0  0  0
  -34.7973   10.0169   64.4990 H   0  0  0
  -32.6224    8.8727   64.3454 S   0  0  0
  -32.3820    9.6715   65.8678 C   0  0  0
  -32.9216   10.8417   66.1244 N   0  0  0
  -32.7392   11.1495   67.4556 C   0  0  0
  -31.9638   10.2504   68.1750 C   0  0  0
  -31.4963    8.9649   67.1420 S   0  0  0
  -31.6734   10.4291   69.5146 C   0  0  0
  -31.0540    9.7266   70.0632 H   0  0  0
  -32.2172   11.5300   70.1442 C   0  0  0
  -32.0176   11.6988   71.1977 H   0  0  0
  -33.0148   12.4157   69.4561 C   0  0  0
  -33.4469   13.2633   69.9752 H   0  0  0
  -33.2702   12.2459   68.1132 C   0  0  0
  -33.8981   12.9485   67.5804 H   0  0  0
  2  1  1
  2  3  1
  2  4  1
  2 14  1
  4  5  1
  4  6  1
  4  7  1
  7  8  1
  8  9  1
  8 10  1
  8 11  1
 11 12  1
 11 13  1
 11 14  1
 14 15  1
 15 16  2
 15 22  1
 16 17  1
 16 18  1
 18 19  1
 18 20  2
 20 21  1
 20 29  1
 21 22  2
 21 24  1
 22 23  1
 24 25  2
 24 26  1
 26 27  1
 26 28  1
 29 30  1
 29 31  1
 31 32  2
 31 33  1
 33 34  1
 33 35  1
 33 36  1
 36 37  1
 37 38  2
 37 41  1
 38 39  1
 39 40  2
 39 48  1
 40 41  1
 40 42  1
 42 43  1
 42 44  2
 44 45  1
 44 46  1
 46 47  1
 46 48  2
 48 49  1
M  ZZC   1 h1
M  ZZC   2 c20
M  ZZC   3 h2
M  ZZC   4 c19
M  ZZC   5 h3
M  ZZC   6 h4
M  ZZC   7 o3
M  ZZC   8 c18
M  ZZC   9 h5
M  ZZC  10 h6
M  ZZC  11 c17
M  ZZC  12 h7
M  ZZC  13 h8
M  ZZC  14 n4
M  ZZC  15 c13
M  ZZC  16 c12
M  ZZC  17 h12
M  ZZC  18 c11
M  ZZC  19 h13
M  ZZC  20 c10
M  ZZC  21 c15
M  ZZC  22 c14
M  ZZC  23 h11
M  ZZC  24 c16
M  ZZC  25 o2
M  ZZC  26 n3
M  ZZC  27 h10
M  ZZC  28 h9
M  ZZC  29 n2
M  ZZC  30 h14
M  ZZC  31 c9
M  ZZC  32 o1
M  ZZC  33 c8
M  ZZC  34 h15
M  ZZC  35 h16
M  ZZC  36 s2
M  ZZC  37 c7
M  ZZC  38 n1
M  ZZC  39 c5
M  ZZC  40 c4
M  ZZC  41 s1
M  ZZC  42 c3
M  ZZC  43 h18
M  ZZC  44 c2
M  ZZC  45 h19
M  ZZC  46 c1
M  ZZC  47 h20
M  ZZC  48 c6
M  ZZC  49 h17
M  ZZM   1 5
M  ZZI   1 1
M  ZZM   2 1
M  ZZI   2 112
M  ZZM   3 5
M  ZZI   3 1
M  ZZM   4 1
M  ZZI   4 112
M  ZZM   5 5
M  ZZI   5 1
M  ZZM   6 5
M  ZZI   6 1
M  ZZM   7 6
M  ZZI   7 65
M  ZZM   8 1
M  ZZI   8 112
M  ZZM   9 5
M  ZZI   9 1
M  ZZM  10 5
M  ZZI  10 1
M  ZZM  11 1
M  ZZI  11 112
M  ZZM  12 5
M  ZZI  12 1
M  ZZM  13 5
M  ZZI  13 1
M  ZZM  14 40
M  ZZI  14 193
M  ZZM  15 37
M  ZZI  15 124
M  ZZM  16 37
M  ZZI  16 125
M  ZZM  17 5
M  ZZI  17 1
M  ZZM  18 37
M  ZZI  18 125
M  ZZM  19 5
M  ZZI  19 1
M  ZZM  20 37
M  ZZI  20 124
M  ZZM  21 37
M  ZZI  21 124
M  ZZM  22 37
M  ZZI  22 125
M  ZZM  23 5
M  ZZI  23 1
M  ZZM  24 3
M  ZZI  24 121
M  ZZM  25 7
M  ZZI  25 81
M  ZZM  26 10
M  ZZI  26 212
M  ZZM  27 28
M  ZZI  27 11
M  ZZM  28 28
M  ZZI  28 11
M  ZZM  29 10
M  ZZI  29 191
M  ZZM  30 28
M  ZZI  30 11
M  ZZM  31 3
M  ZZI  31 121
M  ZZM  32 7
M  ZZI  32 81
M  ZZM  33 1
M  ZZI  33 112
M  ZZM  34 5
M  ZZI  34 1
M  ZZM  35 5
M  ZZI  35 1
M  ZZM  36 15
M  ZZI  36 240
M  ZZM  37 63
M  ZZI  37 104
M  ZZM  38 66
M  ZZI  38 222
M  ZZM  39 64
M  ZZI  39 105
M  ZZM  40 63
M  ZZI  40 104
M  ZZM  41 44
M  ZZI  41 248
M  ZZM  42 37
M  ZZI  42 125
M  ZZM  43 5
M  ZZI  43 1
M  ZZM  44 37
M  ZZI  44 125
M  ZZM  45 5
M  ZZI  45 1
M  ZZM  46 37
M  ZZI  46 125
M  ZZM  47 5
M  ZZI  47 1
M  ZZM  48 37
M  ZZI  48 125
M  ZZM  49 5
M  ZZI  49 1
M  END
> <NAME>
Z1524834879

> <Score>
-25.159495

> <Natom>
49

> <Nflex>
2

> <Hbond>
-3.078994

> <Hphob>
-6.846751

> <VwInt>
-30.582754

> <Eintl>
8.22458

> <Dsolv>
14.311389

> <SolEl>
8.889236

> <mfScore>
-101.170414

> <RecConf>
1

> <molLogP>
2.451027

$$$$
Z1095384373
  MOLSOFT 11211612053D

 50 52  0  0  0  0  0  0  0  0999 V2000
  -35.2768    4.2399   65.9595 H   0  0  0
  -35.2053    4.0115   67.0181 C   0  0  0
  -35.5732    4.9513   67.9737 C   0  0  0
  -35.4760    4.6033   69.3138 C   0  0  0
  -35.7550    5.3127   70.0874 H   0  0  0
  -35.0089    3.3579   69.6855 C   0  0  0
  -34.9338    3.1001   70.7370 H   0  0  0
  -34.6314    2.4421   68.7262 C   0  0  0
  -34.2600    1.4648   69.0177 H   0  0  0
  -34.7322    2.7722   67.3924 C   0  0  0
  -34.4404    2.0569   66.6314 H   0  0  0
  -36.0423    6.3276   67.5681 C   0  0  0
  -36.9347    6.2315   66.9409 H   0  0  0
  -36.3359    6.8999   68.4537 H   0  0  0
  -34.9934    7.0503   66.8578 N   0  0  0
  -35.0521    7.0734   65.4818 C   0  0  0
  -36.0062    6.6756   64.8307 O   0  0  0
  -33.8756    7.5981   64.7815 C   0  0  0
  -33.8074    7.5070   63.4026 C   0  0  0
  -34.6195    7.0815   62.8246 H   0  0  0
  -32.6806    7.9560   62.7532 C   0  0  0
  -32.5982    7.8695   61.6776 H   0  0  0
  -31.6387    8.4966   63.4678 C   0  0  0
  -30.7456    8.8325   62.9505 H   0  0  0
  -31.7232    8.6017   64.8376 C   0  0  0
  -30.8735    9.0237   65.3566 H   0  0  0
  -32.8525    8.1553   65.5127 C   0  0  0
  -32.9826    8.2674   66.9165 N   0  0  0
  -34.0463    7.7154   67.6070 C   0  0  0
  -34.1445    7.8281   68.8204 O   0  0  0
  -32.0080    9.0475   67.6782 C   0  0  0
  -31.9428    8.6528   68.6972 H   0  0  0
  -31.0002    8.9807   67.2647 H   0  0  0
  -32.4736   10.4970   67.7166 C   0  0  0
  -32.5110   11.2202   66.7282 O   0  0  0
  -32.9081   10.8570   68.9719 N   0  0  0
  -33.0473   10.1340   69.6713 H   0  0  0
  -33.2914   12.2041   69.3113 C   0  0  0
  -32.6687   12.9082   68.7509 H   0  0  0
  -34.3246   12.3425   68.9825 H   0  0  0
  -33.1598   12.4170   70.8127 C   0  0  0
  -33.5728   13.3929   71.0759 H   0  0  0
  -33.7607   11.6714   71.3444 H   0  0  0
  -31.7084   12.3266   71.2788 C   0  0  0
  -31.2903   11.3418   71.0481 H   0  0  0
  -31.0958   13.0614   70.7517 H   0  0  0
  -31.6004   12.5674   72.7697 C   0  0  0
  -30.5579   12.5012   73.0937 H   0  0  0
  -32.1783   11.8168   73.3142 H   0  0  0
  -31.9796   13.5577   73.0396 H   0  0  0
  2  1  1
  2  3  1
  2 10  2
  3  4  2
  3 12  1
  4  5  1
  4  6  1
  6  7  1
  6  8  2
  8  9  1
  8 10  1
 10 11  1
 12 13  1
 12 14  1
 12 15  1
 15 16  1
 15 29  1
 16 17  2
 16 18  1
 18 19  1
 18 27  2
 19 20  1
 19 21  2
 21 22  1
 21 23  1
 23 24  1
 23 25  2
 25 26  1
 25 27  1
 27 28  1
 28 29  1
 28 31  1
 29 30  2
 31 32  1
 31 33  1
 31 34  1
 34 35  2
 34 36  1
 36 37  1
 36 38  1
 38 39  1
 38 40  1
 38 41  1
 41 42  1
 41 43  1
 41 44  1
 44 45  1
 44 46  1
 44 47  1
 47 48  1
 47 49  1
 47 50  1
M  ZZC   1 h1
M  ZZC   2 c21
M  ZZC   3 c16
M  ZZC   4 c17
M  ZZC   5 h5
M  ZZC   6 c18
M  ZZC   7 h4
M  ZZC   8 c19
M  ZZC   9 h3
M  ZZC  10 c20
M  ZZC  11 h2
M  ZZC  12 c15
M  ZZC  13 h6
M  ZZC  14 h7
M  ZZC  15 n3
M  ZZC  16 c13
M  ZZC  17 o2
M  ZZC  18 c12
M  ZZC  19 c11
M  ZZC  20 h8
M  ZZC  21 c10
M  ZZC  22 h9
M  ZZC  23 c9
M  ZZC  24 h10
M  ZZC  25 c8
M  ZZC  26 h11
M  ZZC  27 c7
M  ZZC  28 n2
M  ZZC  29 c14
M  ZZC  30 o3
M  ZZC  31 c6
M  ZZC  32 h12
M  ZZC  33 h13
M  ZZC  34 c5
M  ZZC  35 o1
M  ZZC  36 n1
M  ZZC  37 h14
M  ZZC  38 c4
M  ZZC  39 h15
M  ZZC  40 h16
M  ZZC  41 c3
M  ZZC  42 h17
M  ZZC  43 h18
M  ZZC  44 c2
M  ZZC  45 h19
M  ZZC  46 h20
M  ZZC  47 c1
M  ZZC  48 h21
M  ZZC  49 h22
M  ZZC  50 h23
M  ZZM   1 5
M  ZZI   1 1
M  ZZM   2 37
M  ZZI   2 125
M  ZZM   3 37
M  ZZI   3 124
M  ZZM   4 37
M  ZZI   4 125
M  ZZM   5 5
M  ZZI   5 1
M  ZZM   6 37
M  ZZI   6 125
M  ZZM   7 5
M  ZZI   7 1
M  ZZM   8 37
M  ZZI   8 125
M  ZZM   9 5
M  ZZI   9 1
M  ZZM  10 37
M  ZZI  10 125
M  ZZM  11 5
M  ZZI  11 1
M  ZZM  12 1
M  ZZI  12 112
M  ZZM  13 5
M  ZZI  13 1
M  ZZM  14 5
M  ZZI  14 1
M  ZZM  15 10
M  ZZI  15 192
M  ZZM  16 3
M  ZZI  16 121
M  ZZM  17 7
M  ZZI  17 81
M  ZZM  18 37
M  ZZI  18 124
M  ZZM  19 37
M  ZZI  19 125
M  ZZM  20 5
M  ZZI  20 1
M  ZZM  21 37
M  ZZI  21 125
M  ZZM  22 5
M  ZZI  22 1
M  ZZM  23 37
M  ZZI  23 125
M  ZZM  24 5
M  ZZI  24 1
M  ZZM  25 37
M  ZZI  25 125
M  ZZM  26 5
M  ZZI  26 1
M  ZZM  27 37
M  ZZI  27 124
M  ZZM  28 10
M  ZZI  28 192
M  ZZM  29 3
M  ZZI  29 121
M  ZZM  30 7
M  ZZI  30 81
M  ZZM  31 1
M  ZZI  31 112
M  ZZM  32 5
M  ZZI  32 1
M  ZZM  33 5
M  ZZI  33 1
M  ZZM  34 3
M  ZZI  34 121
M  ZZM  35 7
M  ZZI  35 81
M  ZZM  36 10
M  ZZI  36 211
M  ZZM  37 28
M  ZZI  37 11
M  ZZM  38 1
M  ZZI  38 112
M  ZZM  39 5
M  ZZI  39 1
M  ZZM  40 5
M  ZZI  40 1
M  ZZM  41 1
M  ZZI  41 112
M  ZZM  42 5
M  ZZI  42 1
M  ZZM  43 5
M  ZZI  43 1
M  ZZM  44 1
M  ZZI  44 112
M  ZZM  45 5
M  ZZI  45 1
M  ZZM  46 5
M  ZZI  46 1
M  ZZM  47 1
M  ZZI  47 111
M  ZZM  48 5
M  ZZI  48 1
M  ZZM  49 5
M  ZZI  49 1
M  ZZM  50 5
M  ZZI  50 1
M  END
> <NAME>
Z1095384373

> <Score>
-32.88228

> <Natom>
50

> <Nflex>
7

> <Hbond>
-2.912912

> <Hphob>
-7.333435

> <VwInt>
-33.219748

> <Eintl>
7.989393

> <Dsolv>
9.305838

> <SolEl>
2.183574

> <mfScore>
-103.110205

> <RecConf>
1

> <molLogP>
3.488343

$$$$
Z275522738
  MOLSOFT 11211612053D

 50 54  0  0  1  0  0  0  0  0999 V2000
  -35.3058    4.2029   66.0409 H   0  0  0
  -35.2344    3.9448   67.0930 C   0  0  0
  -35.6286    4.8496   68.0714 C   0  0  0
  -35.5289    4.4722   69.4031 C   0  0  0
  -35.8271    5.1563   70.1919 H   0  0  0
  -35.0342    3.2290   69.7450 C   0  0  0
  -34.9571    2.9461   70.7898 H   0  0  0
  -34.6297    2.3479   68.7641 C   0  0  0
  -34.2351    1.3733   69.0326 H   0  0  0
  -34.7322    2.7089   67.4382 C   0  0  0
  -34.4177    2.0217   66.6608 H   0  0  0
  -36.1140    6.2272   67.6957 C   0  0  0
  -36.9915    6.1406   67.0464 H   0  0  0
  -36.4228    6.7891   68.5831 H   0  0  0
  -35.0636    6.9821   67.0270 N   0  0  0
  -35.0823    7.1116   65.6484 C   0  0  0
  -36.0130    6.7637   64.9347 O   0  0  0
  -33.8673    7.6533   65.0290 C   0  0  0
  -33.7784    7.6882   63.6474 C   0  0  0
  -34.6023    7.3675   63.0170 H   0  0  0
  -32.6080    8.1098   63.0595 C   0  0  0
  -32.5143    8.1099   61.9793 H   0  0  0
  -31.5425    8.4994   63.8389 C   0  0  0
  -30.6164    8.8036   63.3610 H   0  0  0
  -31.6380    8.4832   65.2156 C   0  0  0
  -30.7655    8.7842   65.7831 H   0  0  0
  -32.8139    8.0550   65.8224 C   0  0  0
  -32.9916    7.9699   67.2922 C   0  0  0
  -34.0530    7.4503   67.8316 N   0  0  0
  -31.9860    8.4693   68.2009 C   0  0  0
  -30.8667    9.1006   67.9216 N   0  0  0
  -30.3090    9.4544   69.1311 N   0  0  0
  -31.1323    9.0157   70.0562 C   0  0  0
  -32.1790    8.3316   69.5362 O   0  0  0
  -30.9654    9.3451   71.7557 S   0  0  0
  -32.5934   10.1202   72.1047 C   0  0  2
  -32.4655   10.7343   73.0015 H   0  0  0
  -33.6257    9.0405   72.4185 C   0  0  0
  -34.5776    9.4927   72.7094 H   0  0  0
  -33.8331    8.3938   71.5602 H   0  0  0
  -33.2983    8.4077   73.2492 H   0  0  0
  -33.0199   10.9975   70.9789 C   0  0  0
  -33.6836   10.6903   69.8877 N   0  0  0
  -33.5351   11.8259   69.1394 C   0  0  0
  -33.9393   11.8851   67.7249 C   0  0  0
  -33.9569   12.9201   67.3782 H   0  0  0
  -33.2596   11.3108   67.0933 H   0  0  0
  -34.9445   11.4738   67.6040 H   0  0  0
  -32.9111   12.8304   69.7619 N   0  0  0
  -32.5676   12.2785   70.9906 O   0  0  0
  2  1  1
  2  3  2
  2 10  1
  3  4  1
  3 12  1
  4  5  1
  4  6  2
  6  7  1
  6  8  1
  8  9  1
  8 10  2
 10 11  1
 12 13  1
 12 14  1
 12 15  1
 15 16  1
 15 29  1
 16 17  2
 16 18  1
 18 19  2
 18 27  1
 19 20  1
 19 21  1
 21 22  1
 21 23  2
 23 24  1
 23 25  1
 25 26  1
 25 27  2
 27 28  1
 28 29  2
 28 30  1
 30 31  2
 30 34  1
 31 32  1
 32 33  2
 33 34  1
 33 35  1
 36 35  1
 36 37  1
 36 38  1
 36 42  1
 38 39  1
 38 40  1
 38 41  1
 42 43  2
 42 50  1
 43 44  1
 44 45  1
 44 49  2
 45 46  1
 45 47  1
 45 48  1
 49 50  1
M  ZZC   1 h1
M  ZZC   2 c22
M  ZZC   3 c17
M  ZZC   4 c18
M  ZZC   5 h5
M  ZZC   6 c19
M  ZZC   7 h4
M  ZZC   8 c20
M  ZZC   9 h3
M  ZZC  10 c21
M  ZZC  11 h2
M  ZZC  12 c16
M  ZZC  13 h6
M  ZZC  14 h7
M  ZZC  15 n5
M  ZZC  16 c15
M  ZZC  17 o3
M  ZZC  18 c14
M  ZZC  19 c13
M  ZZC  20 h8
M  ZZC  21 c12
M  ZZC  22 h9
M  ZZC  23 c11
M  ZZC  24 h10
M  ZZC  25 c10
M  ZZC  26 h11
M  ZZC  27 c9
M  ZZC  28 c8
M  ZZC  29 n6
M  ZZC  30 c7
M  ZZC  31 n4
M  ZZC  32 n3
M  ZZC  33 c6
M  ZZC  34 o2
M  ZZC  35 s1
M  ZZC  36 c4
M  ZZC  37 h18
M  ZZC  38 c5
M  ZZC  39 h12
M  ZZC  40 h13
M  ZZC  41 h14
M  ZZC  42 c3
M  ZZC  43 n1
M  ZZC  44 c2
M  ZZC  45 c1
M  ZZC  46 h15
M  ZZC  47 h16
M  ZZC  48 h17
M  ZZC  49 n2
M  ZZC  50 o1
M  ZZM   1 5
M  ZZI   1 1
M  ZZM   2 37
M  ZZI   2 125
M  ZZM   3 37
M  ZZI   3 124
M  ZZM   4 37
M  ZZI   4 125
M  ZZM   5 5
M  ZZI   5 1
M  ZZM   6 37
M  ZZI   6 125
M  ZZM   7 5
M  ZZI   7 1
M  ZZM   8 37
M  ZZI   8 125
M  ZZM   9 5
M  ZZI   9 1
M  ZZM  10 37
M  ZZI  10 125
M  ZZM  11 5
M  ZZI  11 1
M  ZZM  12 1
M  ZZI  12 112
M  ZZM  13 5
M  ZZI  13 1
M  ZZM  14 5
M  ZZI  14 1
M  ZZM  15 10
M  ZZI  15 192
M  ZZM  16 3
M  ZZI  16 121
M  ZZM  17 7
M  ZZI  17 81
M  ZZM  18 37
M  ZZI  18 124
M  ZZM  19 37
M  ZZI  19 125
M  ZZM  20 5
M  ZZI  20 1
M  ZZM  21 37
M  ZZI  21 125
M  ZZM  22 5
M  ZZI  22 1
M  ZZM  23 37
M  ZZI  23 125
M  ZZM  24 5
M  ZZI  24 1
M  ZZM  25 37
M  ZZI  25 125
M  ZZM  26 5
M  ZZI  26 1
M  ZZM  27 37
M  ZZI  27 124
M  ZZM  28 3
M  ZZI  28 121
M  ZZM  29 9
M  ZZI  29 220
M  ZZM  30 63
M  ZZI  30 104
M  ZZM  31 66
M  ZZI  31 222
M  ZZM  32 66
M  ZZI  32 222
M  ZZM  33 63
M  ZZI  33 104
M  ZZM  34 59
M  ZZI  34 56
M  ZZM  35 15
M  ZZI  35 240
M  ZZM  36 1
M  ZZI  36 113
M  ZZM  37 5
M  ZZI  37 1
M  ZZM  38 1
M  ZZI  38 111
M  ZZM  39 5
M  ZZI  39 1
M  ZZM  40 5
M  ZZI  40 1
M  ZZM  41 5
M  ZZI  41 1
M  ZZM  42 63
M  ZZI  42 104
M  ZZM  43 66
M  ZZI  43 222
M  ZZM  44 64
M  ZZI  44 105
M  ZZM  45 1
M  ZZI  45 111
M  ZZM  46 5
M  ZZI  46 1
M  ZZM  47 5
M  ZZI  47 1
M  ZZM  48 5
M  ZZI  48 1
M  ZZM  49 65
M  ZZI  49 207
M  ZZM  50 59
M  ZZI  50 56
M  END
> <NAME>
Z275522738

> <Score>
-28.78434

> <Natom>
50

> <Nflex>
4

> <Hbond>
-3.722848

> <Hphob>
-7.480947

> <VwInt>
-35.094985

> <Eintl>
9.489756

> <Dsolv>
16.142748

> <SolEl>
9.446399

> <mfScore>
-109.850689

> <RecConf>
1

> <molLogP>
3.054292

$$$$
Z114048402
  MOLSOFT 11211612053D

 50 53  0  0  0  0  0  0  0  0999 V2000
  -35.7338    4.7021   65.6159 H   0  0  0
  -35.4504    4.4321   66.6278 C   0  0  0
  -35.7869    5.2535   67.6960 C   0  0  0
  -35.4155    4.8617   68.9742 C   0  0  0
  -35.6621    5.4826   69.8306 H   0  0  0
  -34.7414    3.6738   69.1774 C   0  0  0
  -34.4657    3.3739   70.1831 H   0  0  0
  -34.4159    2.8666   68.1079 C   0  0  0
  -33.8849    1.9335   68.2670 H   0  0  0
  -34.7693    3.2502   66.8322 C   0  0  0
  -34.5143    2.6187   65.9876 H   0  0  0
  -36.5464    6.5387   67.4765 C   0  0  0
  -37.2919    6.3801   66.6900 H   0  0  0
  -37.1139    6.7982   68.3747 H   0  0  0
  -35.6940    7.6616   67.0980 N   0  0  0
  -35.3767    7.8676   65.7635 C   0  0  0
  -35.8618    7.1694   64.8845 O   0  0  0
  -34.4893    8.9022   65.4688 N   0  0  0
  -33.8922    8.9359   64.1434 C   0  0  0
  -33.7339    9.9807   63.8675 H   0  0  0
  -34.5876    8.5108   63.4128 H   0  0  0
  -32.5604    8.1640   64.0937 C   0  0  0
  -32.7786    7.0908   64.1012 H   0  0  0
  -31.6379    8.4501   65.2799 C   0  0  0
  -30.6427    8.0296   65.1176 H   0  0  0
  -32.0265    8.0097   66.2026 H   0  0  0
  -31.5054    9.5209   65.4435 H   0  0  0
  -31.8263    8.4921   62.8028 C   0  0  0
  -32.4047    8.1550   61.9397 H   0  0  0
  -30.8502    8.0014   62.7650 H   0  0  0
  -31.6540    9.5668   62.7030 H   0  0  0
  -34.1390    9.9316   66.3265 C   0  0  0
  -33.5637   10.9516   65.9713 O   0  0  0
  -34.4779    9.6403   67.6644 C   0  0  0
  -35.1811    8.5392   68.0275 C   0  0  0
  -35.3188    8.4479   69.3831 N   0  0  0
  -34.7044    9.5175   69.8497 C   0  0  0
  -34.6166    9.7751   70.8972 H   0  0  0
  -34.1882   10.2895   68.8362 N   0  0  0
  -33.4937   11.5726   68.9811 C   0  0  0
  -32.8441   11.7163   68.1143 H   0  0  0
  -34.2570   12.3574   68.9688 H   0  0  0
  -32.6760   11.6159   70.2195 C   0  0  0
  -31.4309   11.1239   70.5552 C   0  0  0
  -30.7709   10.5601   69.9108 H   0  0  0
  -31.1900   11.5234   71.8908 C   0  0  0
  -30.3106   11.3280   72.4875 H   0  0  0
  -32.3069   12.2209   72.2905 C   0  0  0
  -32.5970   12.7153   73.2072 H   0  0  0
  -33.2173   12.2803   71.2801 O   0  0  0
  2  1  1
  2  3  1
  2 10  2
  3  4  2
  3 12  1
  4  5  1
  4  6  1
  6  7  1
  6  8  2
  8  9  1
  8 10  1
 10 11  1
 12 13  1
 12 14  1
 12 15  1
 15 16  1
 15 35  1
 16 17  2
 16 18  1
 18 19  1
 18 32  1
 19 20  1
 19 21  1
 19 22  1
 22 23  1
 22 24  1
 22 28  1
 24 25  1
 24 26  1
 24 27  1
 28 29  1
 28 30  1
 28 31  1
 32 33  2
 32 34  1
 34 35  2
 34 39  1
 35 36  1
 36 37  2
 37 38  1
 37 39  1
 39 40  1
 40 41  1
 40 42  1
 40 43  1
 43 44  2
 43 50  1
 44 45  1
 44 46  1
 46 47  1
 46 48  2
 48 49  1
 48 50  1
M  ZZC   1 h1
M  ZZC   2 c21
M  ZZC   3 c16
M  ZZC   4 c17
M  ZZC   5 h5
M  ZZC   6 c18
M  ZZC   7 h4
M  ZZC   8 c19
M  ZZC   9 h3
M  ZZC  10 c20
M  ZZC  11 h2
M  ZZC  12 c15
M  ZZC  13 h6
M  ZZC  14 h7
M  ZZC  15 n4
M  ZZC  16 c14
M  ZZC  17 o3
M  ZZC  18 n1
M  ZZC  19 c4
M  ZZC  20 h14
M  ZZC  21 h15
M  ZZC  22 c2
M  ZZC  23 h19
M  ZZC  24 c3
M  ZZC  25 h16
M  ZZC  26 h17
M  ZZC  27 h18
M  ZZC  28 c1
M  ZZC  29 h20
M  ZZC  30 h21
M  ZZC  31 h22
M  ZZC  32 c5
M  ZZC  33 o1
M  ZZC  34 c6
M  ZZC  35 c7
M  ZZC  36 n2
M  ZZC  37 c8
M  ZZC  38 h13
M  ZZC  39 n3
M  ZZC  40 c9
M  ZZC  41 h11
M  ZZC  42 h12
M  ZZC  43 c10
M  ZZC  44 c11
M  ZZC  45 h10
M  ZZC  46 c12
M  ZZC  47 h9
M  ZZC  48 c13
M  ZZC  49 h8
M  ZZC  50 o2
M  ZZM   1 5
M  ZZI   1 1
M  ZZM   2 37
M  ZZI   2 125
M  ZZM   3 37
M  ZZI   3 124
M  ZZM   4 37
M  ZZI   4 125
M  ZZM   5 5
M  ZZI   5 1
M  ZZM   6 37
M  ZZI   6 125
M  ZZM   7 5
M  ZZI   7 1
M  ZZM   8 37
M  ZZI   8 125
M  ZZM   9 5
M  ZZI   9 1
M  ZZM  10 37
M  ZZI  10 125
M  ZZM  11 5
M  ZZI  11 1
M  ZZM  12 1
M  ZZI  12 112
M  ZZM  13 5
M  ZZI  13 1
M  ZZM  14 5
M  ZZI  14 1
M  ZZM  15 10
M  ZZI  15 192
M  ZZM  16 3
M  ZZI  16 121
M  ZZM  17 7
M  ZZI  17 81
M  ZZM  18 10
M  ZZI  18 192
M  ZZM  19 1
M  ZZI  19 112
M  ZZM  20 5
M  ZZI  20 1
M  ZZM  21 5
M  ZZI  21 1
M  ZZM  22 1
M  ZZI  22 113
M  ZZM  23 5
M  ZZI  23 1
M  ZZM  24 1
M  ZZI  24 111
M  ZZM  25 5
M  ZZI  25 1
M  ZZM  26 5
M  ZZI  26 1
M  ZZM  27 5
M  ZZI  27 1
M  ZZM  28 1
M  ZZI  28 111
M  ZZM  29 5
M  ZZI  29 1
M  ZZM  30 5
M  ZZI  30 1
M  ZZM  31 5
M  ZZI  31 1
M  ZZM  32 3
M  ZZI  32 121
M  ZZM  33 7
M  ZZI  33 81
M  ZZM  34 63
M  ZZI  34 104
M  ZZM  35 64
M  ZZI  35 105
M  ZZM  36 66
M  ZZI  36 222
M  ZZM  37 63
M  ZZI  37 104
M  ZZM  38 5
M  ZZI  38 6
M  ZZM  39 39
M  ZZI  39 215
M  ZZM  40 1
M  ZZI  40 112
M  ZZM  41 5
M  ZZI  41 1
M  ZZM  42 5
M  ZZI  42 1
M  ZZM  43 63
M  ZZI  43 104
M  ZZM  44 64
M  ZZI  44 105
M  ZZM  45 5
M  ZZI  45 1
M  ZZM  46 64
M  ZZI  46 105
M  ZZM  47 5
M  ZZI  47 1
M  ZZM  48 63
M  ZZI  48 104
M  ZZM  49 5
M  ZZI  49 1
M  ZZM  50 59
M  ZZI  50 56
M  END
> <NAME>
Z114048402

> <Score>
-28.479641

> <Natom>
50

> <Nflex>
6

> <Hbond>
-3.265296

> <Hphob>
-7.86336

> <VwInt>
-30.935727

> <Eintl>
8.860394

> <Dsolv>
12.111597

> <SolEl>
5.00309

> <mfScore>
-80.410234

> <RecConf>
1

> <molLogP>
3.386992

$$$$
Z18317269
  MOLSOFT 11211612053D

 50 52  0  0  0  0  0  0  0  0999 V2000
  -34.3798    4.5212   65.8481 H   0  0  0
  -35.0087    4.9337   66.6266 C   0  0  0
  -35.7485    6.0837   66.4091 C   0  0  0
  -36.6109    6.5523   67.3773 C   0  0  0
  -37.2279    7.4190   67.1705 H   0  0  0
  -36.6808    5.9120   68.5994 C   0  0  0
  -37.3545    6.2772   69.3679 H   0  0  0
  -35.9060    4.7932   68.8380 C   0  0  0
  -35.9649    4.2894   69.7977 H   0  0  0
  -35.0830    4.2940   67.8476 C   0  0  0
  -34.5023    3.3937   68.0239 H   0  0  0
  -35.7138    6.7523   65.1882 O   0  0  0
  -34.4650    7.2554   64.8098 C   0  0  0
  -34.2036    7.2877   63.4569 C   0  0  0
  -34.9448    6.9400   62.7509 H   0  0  0
  -32.9985    7.7596   62.9916 C   0  0  0
  -32.7844    7.7633   61.9302 H   0  0  0
  -32.0550    8.2236   63.8742 C   0  0  0
  -31.1068    8.5960   63.5001 H   0  0  0
  -32.3273    8.2531   65.2236 C   0  0  0
  -33.5374    7.7604   65.7110 C   0  0  0
  -33.7710    7.7684   66.7672 H   0  0  0
  -31.3031    8.8036   65.9958 O   0  0  0
  -31.7039    9.2654   67.2921 C   0  0  0
  -30.7755    9.4261   67.8485 H   0  0  0
  -32.2589    8.4909   67.8246 H   0  0  0
  -32.4472   10.6012   67.2468 C   0  0  0
  -32.6383   11.1864   66.1884 O   0  0  0
  -32.8677   11.1095   68.4763 N   0  0  0
  -33.5640   12.3868   68.4762 C   0  0  0
  -33.0112   13.1067   69.0855 H   0  0  0
  -34.5656   12.2470   68.8818 H   0  0  0
  -33.6490   12.7906   67.4653 H   0  0  0
  -32.7435   10.3688   69.7416 C   0  0  0
  -31.8566    9.7358   69.6548 H   0  0  0
  -32.5283   11.2535   70.9715 C   0  0  0
  -31.6630   11.9079   70.8208 H   0  0  0
  -33.3910   11.9082   71.1367 H   0  0  0
  -32.3073   10.3992   72.2126 C   0  0  0
  -31.3593    9.8586   72.1149 H   0  0  0
  -32.2104   11.0436   73.0919 H   0  0  0
  -33.4355    9.3987   72.4317 C   0  0  0
  -33.1824    8.7339   73.2624 H   0  0  0
  -34.3399    9.9341   72.7302 H   0  0  0
  -33.7339    8.5706   71.1893 C   0  0  0
  -32.9035    7.8809   71.0035 H   0  0  0
  -34.6217    7.9536   71.3602 H   0  0  0
  -33.9456    9.4477   69.9646 C   0  0  0
  -34.8562   10.0397   70.0886 H   0  0  0
  -34.1230    8.8126   69.0919 H   0  0  0
  2  1  1
  2  3  1
  2 10  2
  3  4  2
  3 12  1
  4  5  1
  4  6  1
  6  7  1
  6  8  2
  8  9  1
  8 10  1
 10 11  1
 12 13  1
 13 14  1
 13 21  2
 14 15  1
 14 16  2
 16 17  1
 16 18  1
 18 19  1
 18 20  2
 20 21  1
 20 23  1
 21 22  1
 23 24  1
 24 25  1
 24 26  1
 24 27  1
 27 28  2
 27 29  1
 29 30  1
 29 34  1
 30 31  1
 30 32  1
 30 33  1
 34 35  1
 34 36  1
 34 48  1
 36 37  1
 36 38  1
 36 39  1
 39 40  1
 39 41  1
 39 42  1
 42 43  1
 42 44  1
 42 45  1
 45 46  1
 45 47  1
 45 48  1
 48 49  1
 48 50  1
M  ZZC   1 h1
M  ZZC   2 c21
M  ZZC   3 c16
M  ZZC   4 c17
M  ZZC   5 h5
M  ZZC   6 c18
M  ZZC   7 h4
M  ZZC   8 c19
M  ZZC   9 h3
M  ZZC  10 c20
M  ZZC  11 h2
M  ZZC  12 o3
M  ZZC  13 c14
M  ZZC  14 c13
M  ZZC  15 h7
M  ZZC  16 c12
M  ZZC  17 h8
M  ZZC  18 c11
M  ZZC  19 h9
M  ZZC  20 c10
M  ZZC  21 c15
M  ZZC  22 h6
M  ZZC  23 o2
M  ZZC  24 c9
M  ZZC  25 h10
M  ZZC  26 h11
M  ZZC  27 c8
M  ZZC  28 o1
M  ZZC  29 n1
M  ZZC  30 c1
M  ZZC  31 h23
M  ZZC  32 h24
M  ZZC  33 h25
M  ZZC  34 c2
M  ZZC  35 h22
M  ZZC  36 c3
M  ZZC  37 h20
M  ZZC  38 h21
M  ZZC  39 c4
M  ZZC  40 h18
M  ZZC  41 h19
M  ZZC  42 c5
M  ZZC  43 h16
M  ZZC  44 h17
M  ZZC  45 c6
M  ZZC  46 h14
M  ZZC  47 h15
M  ZZC  48 c7
M  ZZC  49 h12
M  ZZC  50 h13
M  ZZM   1 5
M  ZZI   1 1
M  ZZM   2 37
M  ZZI   2 125
M  ZZM   3 37
M  ZZI   3 124
M  ZZM   4 37
M  ZZI   4 125
M  ZZM   5 5
M  ZZI   5 1
M  ZZM   6 37
M  ZZI   6 125
M  ZZM   7 5
M  ZZI   7 1
M  ZZM   8 37
M  ZZI   8 125
M  ZZM   9 5
M  ZZI   9 1
M  ZZM  10 37
M  ZZI  10 125
M  ZZM  11 5
M  ZZI  11 1
M  ZZM  12 6
M  ZZI  12 59
M  ZZM  13 37
M  ZZI  13 124
M  ZZM  14 37
M  ZZI  14 125
M  ZZM  15 5
M  ZZI  15 1
M  ZZM  16 37
M  ZZI  16 125
M  ZZM  17 5
M  ZZI  17 1
M  ZZM  18 37
M  ZZI  18 125
M  ZZM  19 5
M  ZZI  19 1
M  ZZM  20 37
M  ZZI  20 124
M  ZZM  21 37
M  ZZI  21 125
M  ZZM  22 5
M  ZZI  22 1
M  ZZM  23 6
M  ZZI  23 59
M  ZZM  24 1
M  ZZI  24 112
M  ZZM  25 5
M  ZZI  25 1
M  ZZM  26 5
M  ZZI  26 1
M  ZZM  27 3
M  ZZI  27 121
M  ZZM  28 7
M  ZZI  28 81
M  ZZM  29 10
M  ZZI  29 192
M  ZZM  30 1
M  ZZI  30 111
M  ZZM  31 5
M  ZZI  31 1
M  ZZM  32 5
M  ZZI  32 1
M  ZZM  33 5
M  ZZI  33 1
M  ZZM  34 1
M  ZZI  34 113
M  ZZM  35 5
M  ZZI  35 1
M  ZZM  36 1
M  ZZI  36 112
M  ZZM  37 5
M  ZZI  37 1
M  ZZM  38 5
M  ZZI  38 1
M  ZZM  39 1
M  ZZI  39 112
M  ZZM  40 5
M  ZZI  40 1
M  ZZM  41 5
M  ZZI  41 1
M  ZZM  42 1
M  ZZI  42 112
M  ZZM  43 5
M  ZZI  43 1
M  ZZM  44 5
M  ZZI  44 1
M  ZZM  45 1
M  ZZI  45 112
M  ZZM  46 5
M  ZZI  46 1
M  ZZM  47 5
M  ZZI  47 1
M  ZZM  48 1
M  ZZI  48 112
M  ZZM  49 5
M  ZZI  49 1
M  ZZM  50 5
M  ZZI  50 1
M  END
> <NAME>
Z18317269

> <Score>
-26.911219

> <Natom>
50

> <Nflex>
5

> <Hbond>
-3.19919

> <Hphob>
-7.933452

> <VwInt>
-28.991171

> <Eintl>
4.782876

> <Dsolv>
11.102936

> <SolEl>
6.306234

> <mfScore>
-101.271816

> <RecConf>
1

> <molLogP>
4.653109

$$$$
Z29555594
  MOLSOFT 11211612053D

 50 52  0  0  1  0  0  0  0  0999 V2000
  -37.5848    4.8023   72.2486 H   0  0  0
  -37.3886    5.6130   71.5411 C   0  0  0
  -38.3398    6.0636   71.2425 H   0  0  0
  -36.7570    6.3678   72.0194 H   0  0  0
  -36.7028    5.1071   70.3668 N   0  0  0
  -35.9281    3.9575   70.4596 C   0  0  0
  -35.7407    3.3205   71.4878 O   0  0  0
  -35.3054    3.4810   69.2130 C   0  0  0
  -35.4721    4.2036   68.0539 C   0  0  0
  -34.8964    3.7625   66.8720 C   0  0  0
  -34.9968    4.3042   65.9381 H   0  0  0
  -34.1713    2.5909   66.8746 C   0  0  0
  -33.7217    2.2438   65.9524 H   0  0  0
  -34.0039    1.8651   68.0367 C   0  0  0
  -33.4265    0.9463   68.0228 H   0  0  0
  -34.5684    2.3059   69.2149 C   0  0  0
  -34.4329    1.7247   70.1227 H   0  0  0
  -36.2569    5.4471   68.1413 C   0  0  0
  -36.8288    5.8645   69.2297 N   0  0  0
  -36.4125    6.3571   66.9432 C   0  0  0
  -36.6397    5.9068   65.8273 O   0  0  0
  -36.2612    7.6808   67.2932 N   0  0  0
  -36.1156    7.9805   68.2551 H   0  0  0
  -36.3392    8.6525   66.3007 N   0  0  0
  -37.2497    8.8166   65.8711 H   0  0  0
  -35.2001    9.2964   65.8565 C   0  0  0
  -35.2395   10.1151   64.9520 O   0  0  0
  -33.8957    8.9388   66.5661 C   0  0  1
  -33.9356    7.8885   66.8727 H   0  0  0
  -32.7072    9.0860   65.6025 C   0  0  0
  -31.7692    8.9183   66.1439 H   0  0  0
  -32.6526   10.1079   65.2144 H   0  0  0
  -32.7860    8.1102   64.4283 C   0  0  0
  -33.7505    8.1871   63.9181 H   0  0  0
  -32.7041    7.0808   64.7890 H   0  0  0
  -31.6910    8.3833   63.4158 C   0  0  0
  -31.8168    7.7323   62.5491 H   0  0  0
  -30.6994    8.2049   63.8423 H   0  0  0
  -31.7318    9.4143   63.0562 H   0  0  0
  -33.6980    9.8049   67.7959 C   0  0  0
  -33.6776   11.1935   67.7139 C   0  0  0
  -33.8111   11.6940   66.7604 H   0  0  0
  -33.4876   11.9677   68.8395 C   0  0  0
  -33.4694   13.0491   68.7552 H   0  0  0
  -33.3215   11.3727   70.0705 C   0  0  0
  -33.1712   11.9844   70.9547 H   0  0  0
  -33.3525    9.9980   70.1720 C   0  0  0
  -33.2287    9.5267   71.1418 H   0  0  0
  -33.5338    9.2201   69.0452 C   0  0  0
  -33.5413    8.1395   69.1525 H   0  0  0
  2  1  1
  2  3  1
  2  4  1
  2  5  1
  5  6  1
  5 19  1
  6  7  2
  6  8  1
  8  9  2
  8 16  1
  9 10  1
  9 18  1
 10 11  1
 10 12  2
 12 13  1
 12 14  1
 14 15  1
 14 16  2
 16 17  1
 18 19  2
 18 20  1
 20 21  2
 20 22  1
 22 23  1
 22 24  1
 24 25  1
 24 26  1
 26 27  2
 28 26  1
 28 29  1
 28 30  1
 28 40  1
 30 31  1
 30 32  1
 30 33  1
 33 34  1
 33 35  1
 33 36  1
 36 37  1
 36 38  1
 36 39  1
 40 41  1
 40 49  2
 41 42  1
 41 43  2
 43 44  1
 43 45  1
 45 46  1
 45 47  2
 47 48  1
 47 49  1
 49 50  1
M  ZZC   1 h1
M  ZZC   2 c21
M  ZZC   3 h2
M  ZZC   4 h3
M  ZZC   5 n3
M  ZZC   6 c20
M  ZZC   7 o3
M  ZZC   8 c19
M  ZZC   9 c14
M  ZZC  10 c15
M  ZZC  11 h7
M  ZZC  12 c16
M  ZZC  13 h6
M  ZZC  14 c17
M  ZZC  15 h5
M  ZZC  16 c18
M  ZZC  17 h4
M  ZZC  18 c13
M  ZZC  19 n4
M  ZZC  20 c12
M  ZZC  21 o2
M  ZZC  22 n2
M  ZZC  23 h8
M  ZZC  24 n1
M  ZZC  25 h9
M  ZZC  26 c11
M  ZZC  27 o1
M  ZZC  28 c4
M  ZZC  29 h22
M  ZZC  30 c3
M  ZZC  31 h15
M  ZZC  32 h16
M  ZZC  33 c2
M  ZZC  34 h17
M  ZZC  35 h18
M  ZZC  36 c1
M  ZZC  37 h19
M  ZZC  38 h20
M  ZZC  39 h21
M  ZZC  40 c5
M  ZZC  41 c10
M  ZZC  42 h10
M  ZZC  43 c9
M  ZZC  44 h11
M  ZZC  45 c8
M  ZZC  46 h12
M  ZZC  47 c7
M  ZZC  48 h13
M  ZZC  49 c6
M  ZZC  50 h14
M  ZZM   1 5
M  ZZI   1 1
M  ZZM   2 1
M  ZZI   2 111
M  ZZM   3 5
M  ZZI   3 1
M  ZZM   4 5
M  ZZI   4 1
M  ZZM   5 10
M  ZZI   5 192
M  ZZM   6 3
M  ZZI   6 121
M  ZZM   7 7
M  ZZI   7 81
M  ZZM   8 37
M  ZZI   8 124
M  ZZM   9 37
M  ZZI   9 124
M  ZZM  10 37
M  ZZI  10 125
M  ZZM  11 5
M  ZZI  11 1
M  ZZM  12 37
M  ZZI  12 125
M  ZZM  13 5
M  ZZI  13 1
M  ZZM  14 37
M  ZZI  14 125
M  ZZM  15 5
M  ZZI  15 1
M  ZZM  16 37
M  ZZI  16 125
M  ZZM  17 5
M  ZZI  17 1
M  ZZM  18 3
M  ZZI  18 121
M  ZZM  19 9
M  ZZI  19 220
M  ZZM  20 3
M  ZZI  20 121
M  ZZM  21 7
M  ZZI  21 81
M  ZZM  22 10
M  ZZI  22 191
M  ZZM  23 28
M  ZZI  23 11
M  ZZM  24 10
M  ZZI  24 191
M  ZZM  25 28
M  ZZI  25 11
M  ZZM  26 3
M  ZZI  26 121
M  ZZM  27 7
M  ZZI  27 81
M  ZZM  28 1
M  ZZI  28 113
M  ZZM  29 5
M  ZZI  29 1
M  ZZM  30 1
M  ZZI  30 112
M  ZZM  31 5
M  ZZI  31 1
M  ZZM  32 5
M  ZZI  32 1
M  ZZM  33 1
M  ZZI  33 112
M  ZZM  34 5
M  ZZI  34 1
M  ZZM  35 5
M  ZZI  35 1
M  ZZM  36 1
M  ZZI  36 111
M  ZZM  37 5
M  ZZI  37 1
M  ZZM  38 5
M  ZZI  38 1
M  ZZM  39 5
M  ZZI  39 1
M  ZZM  40 37
M  ZZI  40 124
M  ZZM  41 37
M  ZZI  41 125
M  ZZM  42 5
M  ZZI  42 1
M  ZZM  43 37
M  ZZI  43 125
M  ZZM  44 5
M  ZZI  44 1
M  ZZM  45 37
M  ZZI  45 125
M  ZZM  46 5
M  ZZI  46 1
M  ZZM  47 37
M  ZZI  47 125
M  ZZM  48 5
M  ZZI  48 1
M  ZZM  49 37
M  ZZI  49 125
M  ZZM  50 5
M  ZZI  50 1
M  END
> <NAME>
Z29555594

> <Score>
-26.341299

> <Natom>
50

> <Nflex>
5

> <Hbond>
-2.923911

> <Hphob>
-6.497165

> <VwInt>
-34.853798

> <Eintl>
7.431051

> <Dsolv>
13.50906

> <SolEl>
10.804999

> <mfScore>
-99.088046

> <RecConf>
1

> <molLogP>
2.375172

$$$$
Z83012718
  MOLSOFT 11211612053D

 50 52  0  0  0  0  0  0  0  0999 V2000
  -33.9119    1.2512   68.7579 H   0  0  0
  -34.7745    1.3321   69.4285 C   0  0  0
  -35.6949    0.9767   68.9527 H   0  0  0
  -34.5795    0.6947   70.2928 H   0  0  0
  -34.9294    2.6659   69.9181 O   0  0  0
  -35.0772    3.6307   68.9161 C   0  0  0
  -35.1949    3.3254   67.5637 C   0  0  0
  -35.1984    2.3044   67.2004 H   0  0  0
  -35.3166    4.3398   66.6371 C   0  0  0
  -35.4059    4.0919   65.5846 H   0  0  0
  -35.3009    5.6586   67.0567 C   0  0  0
  -35.2125    5.9746   68.4043 C   0  0  0
  -35.2516    7.0107   68.7128 H   0  0  0
  -35.1036    4.9538   69.3385 C   0  0  0
  -35.0059    5.1769   70.7187 O   0  0  0
  -34.9482    6.5582   71.0941 C   0  0  0
  -34.8168    6.6049   72.1782 H   0  0  0
  -35.8854    7.0698   70.8540 H   0  0  0
  -34.0886    7.0605   70.6379 H   0  0  0
  -35.4008    6.7406   66.0462 C   0  0  0
  -36.1342    6.5985   65.0798 O   0  0  0
  -34.6186    7.8454   66.3008 N   0  0  0
  -33.9501    7.8243   67.0639 H   0  0  0
  -34.6632    9.0182   65.4407 C   0  0  0
  -34.2023    8.7465   64.4852 H   0  0  0
  -35.7043    9.3011   65.2513 H   0  0  0
  -33.8993   10.1849   66.0583 C   0  0  0
  -33.0944   10.8089   65.3856 O   0  0  0
  -34.2128   10.5683   67.3589 N   0  0  0
  -35.3594   10.0757   68.1084 C   0  0  0
  -35.8514   10.9287   68.5746 H   0  0  0
  -35.0242    9.3824   68.8840 H   0  0  0
  -36.0872    9.5808   67.4636 H   0  0  0
  -33.3846   11.5882   67.9989 C   0  0  0
  -32.5484   11.8666   67.3506 H   0  0  0
  -34.0065   12.4825   68.1084 H   0  0  0
  -32.8383   11.1599   69.3362 C   0  0  0
  -32.9990   11.9979   70.4415 C   0  0  0
  -33.5176   12.9451   70.3327 H   0  0  0
  -32.5115   11.6510   71.6891 C   0  0  0
  -32.6415   12.2999   72.5493 H   0  0  0
  -31.8615   10.4453   71.7946 C   0  0  0
  -31.6895    9.6256   70.7363 C   0  0  0
  -32.1507    9.9523   69.4809 C   0  0  0
  -31.9868    9.2808   68.6442 H   0  0  0
  -31.0360    8.4637   71.0730 O   0  0  0
  -30.7974    8.6888   72.4757 C   0  0  0
  -31.2539    7.8724   73.0461 H   0  0  0
  -29.7191    8.6686   72.6593 H   0  0  0
  -31.3270    9.9389   72.9508 O   0  0  0
  2  1  1
  2  3  1
  2  4  1
  2  5  1
  5  6  1
  6  7  2
  6 14  1
  7  8  1
  7  9  1
  9 10  1
  9 11  2
 11 12  1
 11 20  1
 12 13  1
 12 14  2
 14 15  1
 15 16  1
 16 17  1
 16 18  1
 16 19  1
 20 21  2
 20 22  1
 22 23  1
 22 24  1
 24 25  1
 24 26  1
 24 27  1
 27 28  2
 27 29  1
 29 30  1
 29 34  1
 30 31  1
 30 32  1
 30 33  1
 34 35  1
 34 36  1
 34 37  1
 37 38  2
 37 44  1
 38 39  1
 38 40  1
 40 41  1
 40 42  2
 42 43  1
 42 50  1
 43 44  2
 43 46  1
 44 45  1
 46 47  1
 47 48  1
 47 49  1
 47 50  1
M  ZZC   1 h1
M  ZZC   2 c20
M  ZZC   3 h2
M  ZZC   4 h3
M  ZZC   5 o6
M  ZZC   6 c16
M  ZZC   7 c15
M  ZZC   8 h8
M  ZZC   9 c14
M  ZZC  10 h9
M  ZZC  11 c13
M  ZZC  12 c18
M  ZZC  13 h7
M  ZZC  14 c17
M  ZZC  15 o5
M  ZZC  16 c19
M  ZZC  17 h4
M  ZZC  18 h5
M  ZZC  19 h6
M  ZZC  20 c12
M  ZZC  21 o4
M  ZZC  22 n2
M  ZZC  23 h10
M  ZZC  24 c11
M  ZZC  25 h11
M  ZZC  26 h12
M  ZZC  27 c10
M  ZZC  28 o3
M  ZZC  29 n1
M  ZZC  30 c1
M  ZZC  31 h20
M  ZZC  32 h21
M  ZZC  33 h22
M  ZZC  34 c2
M  ZZC  35 h18
M  ZZC  36 h19
M  ZZC  37 c3
M  ZZC  38 c4
M  ZZC  39 h17
M  ZZC  40 c5
M  ZZC  41 h16
M  ZZC  42 c6
M  ZZC  43 c7
M  ZZC  44 c8
M  ZZC  45 h15
M  ZZC  46 o1
M  ZZC  47 c9
M  ZZC  48 h13
M  ZZC  49 h14
M  ZZC  50 o2
M  ZZM   1 5
M  ZZI   1 1
M  ZZM   2 1
M  ZZI   2 111
M  ZZM   3 5
M  ZZI   3 1
M  ZZM   4 5
M  ZZI   4 1
M  ZZM   5 6
M  ZZI   5 59
M  ZZM   6 37
M  ZZI   6 124
M  ZZM   7 37
M  ZZI   7 125
M  ZZM   8 5
M  ZZI   8 1
M  ZZM   9 37
M  ZZI   9 125
M  ZZM  10 5
M  ZZI  10 1
M  ZZM  11 37
M  ZZI  11 124
M  ZZM  12 37
M  ZZI  12 125
M  ZZM  13 5
M  ZZI  13 1
M  ZZM  14 37
M  ZZI  14 124
M  ZZM  15 6
M  ZZI  15 59
M  ZZM  16 1
M  ZZI  16 111
M  ZZM  17 5
M  ZZI  17 1
M  ZZM  18 5
M  ZZI  18 1
M  ZZM  19 5
M  ZZI  19 1
M  ZZM  20 3
M  ZZI  20 121
M  ZZM  21 7
M  ZZI  21 81
M  ZZM  22 10
M  ZZI  22 211
M  ZZM  23 28
M  ZZI  23 11
M  ZZM  24 1
M  ZZI  24 112
M  ZZM  25 5
M  ZZI  25 1
M  ZZM  26 5
M  ZZI  26 1
M  ZZM  27 3
M  ZZI  27 121
M  ZZM  28 7
M  ZZI  28 81
M  ZZM  29 10
M  ZZI  29 192
M  ZZM  30 1
M  ZZI  30 111
M  ZZM  31 5
M  ZZI  31 1
M  ZZM  32 5
M  ZZI  32 1
M  ZZM  33 5
M  ZZI  33 1
M  ZZM  34 1
M  ZZI  34 112
M  ZZM  35 5
M  ZZI  35 1
M  ZZM  36 5
M  ZZI  36 1
M  ZZM  37 37
M  ZZI  37 124
M  ZZM  38 37
M  ZZI  38 125
M  ZZM  39 5
M  ZZI  39 1
M  ZZM  40 37
M  ZZI  40 125
M  ZZM  41 5
M  ZZI  41 1
M  ZZM  42 37
M  ZZI  42 124
M  ZZM  43 37
M  ZZI  43 124
M  ZZM  44 37
M  ZZI  44 125
M  ZZM  45 5
M  ZZI  45 1
M  ZZM  46 6
M  ZZI  46 59
M  ZZM  47 1
M  ZZI  47 112
M  ZZM  48 5
M  ZZI  48 1
M  ZZM  49 5
M  ZZI  49 1
M  ZZM  50 6
M  ZZI  50 59
M  END
> <NAME>
Z83012718

> <Score>
-26.282365

> <Natom>
50

> <Nflex>
5

> <Hbond>
-4.119665

> <Hphob>
-6.645243

> <VwInt>
-28.652178

> <Eintl>
5.898158

> <Dsolv>
13.011992

> <SolEl>
6.796795

> <mfScore>
-94.030357

> <RecConf>
1

> <molLogP>
2.313764

$$$$
Z915546350
  MOLSOFT 11211612053D

 50 52  0  0  0  0  0  0  0  0999 V2000
  -37.1635    8.4184   67.7228 O   0  0  0
  -36.0586    8.7782   66.8533 S   0  0  0
  -36.2869    9.5585   65.6534 O   0  0  0
  -34.8990    9.7199   67.8715 C   0  0  0
  -34.7642    9.4134   69.2153 C   0  0  0
  -35.3359    8.6131   69.6750 H   0  0  0
  -33.8650   10.1260   69.9816 C   0  0  0
  -33.7564    9.8544   71.0251 H   0  0  0
  -33.1101   11.1438   69.4119 C   0  0  0
  -33.2946   11.4708   68.0782 C   0  0  0
  -32.7210   12.2732   67.6246 H   0  0  0
  -34.1920   10.7667   67.3031 C   0  0  0
  -34.3083   11.0220   66.2547 H   0  0  0
  -32.1204   11.8597   70.1238 N   0  0  0
  -31.5834   12.5325   69.5872 H   0  0  0
  -31.7827   11.6727   71.4527 C   0  0  0
  -32.3278   10.9210   72.2472 O   0  0  0
  -30.6103   12.5217   71.8616 C   0  0  0
  -30.3316   12.2965   72.8949 H   0  0  0
  -30.8751   13.5797   71.7877 H   0  0  0
  -29.7543   12.3125   71.2122 H   0  0  0
  -35.1640    7.3501   66.4364 N   0  0  0
  -34.0013    7.5844   65.5954 C   0  0  0
  -32.7631    7.9017   66.1368 C   0  0  0
  -32.6135    7.9285   67.2103 H   0  0  0
  -31.7025    8.2099   65.3096 C   0  0  0
  -30.7362    8.4609   65.7361 H   0  0  0
  -31.8662    8.1871   63.9405 C   0  0  0
  -31.0287    8.4122   63.2871 H   0  0  0
  -33.0947    7.8723   63.3994 C   0  0  0
  -33.2168    7.8481   62.3220 H   0  0  0
  -34.1660    7.5941   64.2232 C   0  0  0
  -35.1354    7.3783   63.7892 H   0  0  0
  -35.0354    6.2972   67.4948 C   0  0  0
  -35.7923    6.4621   68.2657 H   0  0  0
  -34.0678    6.3663   67.9980 H   0  0  0
  -35.2466    4.9146   66.8725 C   0  0  0
  -34.6068    4.8110   65.9919 H   0  0  0
  -36.2731    4.8246   66.5028 H   0  0  0
  -34.9613    3.7746   67.8190 C   0  0  0
  -35.4161    3.7755   69.1320 C   0  0  0
  -35.9981    4.6054   69.5189 H   0  0  0
  -35.1503    2.7138   69.9733 C   0  0  0
  -35.5126    2.7294   70.9964 H   0  0  0
  -34.4326    1.6299   69.5168 C   0  0  0
  -34.2236    0.7946   70.1774 H   0  0  0
  -33.9919    1.6074   68.2122 C   0  0  0
  -33.4343    0.7523   67.8472 H   0  0  0
  -34.2612    2.6651   67.3676 C   0  0  0
  -33.9129    2.6167   66.3402 H   0  0  0
  2  1  2
  2  3  2
  2  4  1
  2 22  1
  4  5  2
  4 12  1
  5  6  1
  5  7  1
  7  8  1
  7  9  2
  9 10  1
  9 14  1
 10 11  1
 10 12  2
 12 13  1
 14 15  1
 14 16  1
 16 17  2
 16 18  1
 18 19  1
 18 20  1
 18 21  1
 22 23  1
 22 34  1
 23 24  2
 23 32  1
 24 25  1
 24 26  1
 26 27  1
 26 28  2
 28 29  1
 28 30  1
 30 31  1
 30 32  2
 32 33  1
 34 35  1
 34 36  1
 34 37  1
 37 38  1
 37 39  1
 37 40  1
 40 41  2
 40 49  1
 41 42  1
 41 43  1
 43 44  1
 43 45  2
 45 46  1
 45 47  1
 47 48  1
 47 49  2
 49 50  1
M  ZZC   1 o2
M  ZZC   2 s1
M  ZZC   3 o3
M  ZZC   4 c6
M  ZZC   5 c5
M  ZZC   6 h17
M  ZZC   7 c4
M  ZZC   8 h18
M  ZZC   9 c3
M  ZZC  10 c8
M  ZZC  11 h15
M  ZZC  12 c7
M  ZZC  13 h16
M  ZZC  14 n1
M  ZZC  15 h19
M  ZZC  16 c2
M  ZZC  17 o1
M  ZZC  18 c1
M  ZZC  19 h20
M  ZZC  20 h21
M  ZZC  21 h22
M  ZZC  22 n2
M  ZZC  23 c17
M  ZZC  24 c18
M  ZZC  25 h5
M  ZZC  26 c19
M  ZZC  27 h4
M  ZZC  28 c20
M  ZZC  29 h3
M  ZZC  30 c21
M  ZZC  31 h2
M  ZZC  32 c22
M  ZZC  33 h1
M  ZZC  34 c9
M  ZZC  35 h13
M  ZZC  36 h14
M  ZZC  37 c10
M  ZZC  38 h11
M  ZZC  39 h12
M  ZZC  40 c11
M  ZZC  41 c12
M  ZZC  42 h10
M  ZZC  43 c13
M  ZZC  44 h9
M  ZZC  45 c14
M  ZZC  46 h8
M  ZZC  47 c15
M  ZZC  48 h7
M  ZZC  49 c16
M  ZZC  50 h6
M  ZZM   1 32
M  ZZI   1 73
M  ZZM   2 18
M  ZZI   2 250
M  ZZM   3 32
M  ZZI   3 73
M  ZZM   4 37
M  ZZI   4 124
M  ZZM   5 37
M  ZZI   5 125
M  ZZM   6 5
M  ZZI   6 1
M  ZZM   7 37
M  ZZI   7 125
M  ZZM   8 5
M  ZZI   8 1
M  ZZM   9 37
M  ZZI   9 124
M  ZZM  10 37
M  ZZI  10 125
M  ZZM  11 5
M  ZZI  11 1
M  ZZM  12 37
M  ZZI  12 125
M  ZZM  13 5
M  ZZI  13 1
M  ZZM  14 10
M  ZZI  14 191
M  ZZM  15 28
M  ZZI  15 11
M  ZZM  16 3
M  ZZI  16 121
M  ZZM  17 7
M  ZZI  17 81
M  ZZM  18 1
M  ZZI  18 111
M  ZZM  19 5
M  ZZI  19 1
M  ZZM  20 5
M  ZZI  20 1
M  ZZM  21 5
M  ZZI  21 1
M  ZZM  22 43
M  ZZI  22 195
M  ZZM  23 37
M  ZZI  23 124
M  ZZM  24 37
M  ZZI  24 125
M  ZZM  25 5
M  ZZI  25 1
M  ZZM  26 37
M  ZZI  26 125
M  ZZM  27 5
M  ZZI  27 1
M  ZZM  28 37
M  ZZI  28 125
M  ZZM  29 5
M  ZZI  29 1
M  ZZM  30 37
M  ZZI  30 125
M  ZZM  31 5
M  ZZI  31 1
M  ZZM  32 37
M  ZZI  32 125
M  ZZM  33 5
M  ZZI  33 1
M  ZZM  34 1
M  ZZI  34 112
M  ZZM  35 5
M  ZZI  35 1
M  ZZM  36 5
M  ZZI  36 1
M  ZZM  37 1
M  ZZI  37 112
M  ZZM  38 5
M  ZZI  38 1
M  ZZM  39 5
M  ZZI  39 1
M  ZZM  40 37
M  ZZI  40 124
M  ZZM  41 37
M  ZZI  41 125
M  ZZM  42 5
M  ZZI  42 1
M  ZZM  43 37
M  ZZI  43 125
M  ZZM  44 5
M  ZZI  44 1
M  ZZM  45 37
M  ZZI  45 125
M  ZZM  46 5
M  ZZI  46 1
M  ZZM  47 37
M  ZZI  47 125
M  ZZM  48 5
M  ZZI  48 1
M  ZZM  49 37
M  ZZI  49 125
M  ZZM  50 5
M  ZZI  50 1
M  END
> <NAME>
Z915546350

> <Score>
-26.258641

> <Natom>
50

> <Nflex>
6

> <Hbond>
-0.765863

> <Hphob>
-7.799284

> <VwInt>
-33.662265

> <Eintl>
5.251228

> <Dsolv>
6.937636

> <SolEl>
8.732651

> <mfScore>
-84.470809

> <RecConf>
1

> <molLogP>
4.504

$$$$
Z395855874
  MOLSOFT 11211612053D

 50 52  0  0  0  0  0  0  0  0999 V2000
  -36.3722    6.1951   68.6239 H   0  0  0
  -35.9162    5.2511   68.3494 C   0  0  0
  -35.3198    5.0456   67.1090 C   0  0  0
  -34.6933    3.8346   66.8383 C   0  0  0
  -34.2272    3.6374   65.8791 H   0  0  0
  -34.6698    2.8412   67.7958 C   0  0  0
  -34.1880    1.8928   67.5795 H   0  0  0
  -35.2543    3.0511   69.0266 C   0  0  0
  -35.2292    2.2676   69.7775 H   0  0  0
  -35.8719    4.2537   69.3024 C   0  0  0
  -36.3217    4.4188   70.2766 H   0  0  0
  -35.2743    6.0756   66.1296 N   0  0  0
  -36.0531    7.2155   66.0041 C   0  0  0
  -37.2229    7.4297   66.6466 N   0  0  0
  -37.7917    8.2384   66.4024 H   0  0  0
  -37.7546    6.6987   67.1165 H   0  0  0
  -35.4368    8.0156   65.0801 C   0  0  0
  -35.7422    9.0049   64.7707 H   0  0  0
  -34.3392    7.2637   64.6260 C   0  0  0
  -34.3021    6.0490   65.1874 N   0  0  0
  -33.2861    7.6651   63.6674 C   0  0  0
  -33.7440    7.8716   62.6962 H   0  0  0
  -32.6131    6.8243   63.5085 H   0  0  0
  -32.4611    8.8721   64.1088 C   0  0  0
  -31.6392    8.9872   63.3947 H   0  0  0
  -33.0693    9.7778   64.0313 H   0  0  0
  -31.8751    8.7445   65.5194 C   0  0  0
  -31.5003    7.7358   65.7041 H   0  0  0
  -31.0350    9.4297   65.6416 H   0  0  0
  -32.8284    9.0574   66.5656 N   0  0  0
  -33.1560    8.2989   67.1534 H   0  0  0
  -33.2748   10.3452   66.7964 C   0  0  0
  -32.9105   11.3151   66.1482 O   0  0  0
  -34.2934   10.4567   67.9083 C   0  0  0
  -34.9201   11.3310   67.7077 H   0  0  0
  -34.9666    9.5975   67.8602 H   0  0  0
  -33.6637   10.6055   69.2706 C   0  0  0
  -33.7468    9.6122   70.2529 C   0  0  0
  -34.4433    8.3027   70.0125 C   0  0  0
  -34.4577    7.6899   70.9185 H   0  0  0
  -33.9283    7.7302   69.2358 H   0  0  0
  -35.4820    8.4665   69.7177 H   0  0  0
  -33.1582    9.8347   71.4895 C   0  0  0
  -33.2178    9.0799   72.2675 H   0  0  0
  -32.4854   11.0067   71.7575 C   0  0  0
  -32.0267   11.1626   72.7287 H   0  0  0
  -32.3887   11.9757   70.7870 C   0  0  0
  -31.8447   12.8912   70.9890 H   0  0  0
  -32.9785   11.7785   69.5579 C   0  0  0
  -32.8939   12.5600   68.8079 H   0  0  0
  2  1  1
  2  3  1
  2 10  2
  3  4  2
  3 12  1
  4  5  1
  4  6  1
  6  7  1
  6  8  2
  8  9  1
  8 10  1
 10 11  1
 12 13  1
 12 20  1
 13 14  1
 13 17  2
 14 15  1
 14 16  1
 17 18  1
 17 19  1
 19 20  2
 19 21  1
 21 22  1
 21 23  1
 21 24  1
 24 25  1
 24 26  1
 24 27  1
 27 28  1
 27 29  1
 27 30  1
 30 31  1
 30 32  1
 32 33  2
 32 34  1
 34 35  1
 34 36  1
 34 37  1
 37 38  1
 37 49  2
 38 39  1
 38 43  2
 39 40  1
 39 41  1
 39 42  1
 43 44  1
 43 45  1
 45 46  1
 45 47  2
 47 48  1
 47 49  1
 49 50  1
M  ZZC   1 h3
M  ZZC   2 c21
M  ZZC   3 c16
M  ZZC   4 c17
M  ZZC   5 h7
M  ZZC   6 c18
M  ZZC   7 h6
M  ZZC   8 c19
M  ZZC   9 h5
M  ZZC  10 c20
M  ZZC  11 h4
M  ZZC  12 n2
M  ZZC  13 c15
M  ZZC  14 n4
M  ZZC  15 h1
M  ZZC  16 h2
M  ZZC  17 c14
M  ZZC  18 h8
M  ZZC  19 c13
M  ZZC  20 n3
M  ZZC  21 c12
M  ZZC  22 h10
M  ZZC  23 h9
M  ZZC  24 c11
M  ZZC  25 h11
M  ZZC  26 h12
M  ZZC  27 c10
M  ZZC  28 h13
M  ZZC  29 h14
M  ZZC  30 n1
M  ZZC  31 h15
M  ZZC  32 c9
M  ZZC  33 o1
M  ZZC  34 c8
M  ZZC  35 h16
M  ZZC  36 h17
M  ZZC  37 c7
M  ZZC  38 c2
M  ZZC  39 c1
M  ZZC  40 h22
M  ZZC  41 h23
M  ZZC  42 h24
M  ZZC  43 c3
M  ZZC  44 h21
M  ZZC  45 c4
M  ZZC  46 h20
M  ZZC  47 c5
M  ZZC  48 h19
M  ZZC  49 c6
M  ZZC  50 h18
M  ZZM   1 5
M  ZZI   1 1
M  ZZM   2 37
M  ZZI   2 125
M  ZZM   3 37
M  ZZI   3 124
M  ZZM   4 37
M  ZZI   4 125
M  ZZM   5 5
M  ZZI   5 1
M  ZZM   6 37
M  ZZI   6 125
M  ZZM   7 5
M  ZZI   7 1
M  ZZM   8 37
M  ZZI   8 125
M  ZZM   9 5
M  ZZI   9 1
M  ZZM  10 37
M  ZZI  10 125
M  ZZM  11 5
M  ZZI  11 1
M  ZZM  12 39
M  ZZI  12 215
M  ZZM  13 63
M  ZZI  13 104
M  ZZM  14 40
M  ZZI  14 224
M  ZZM  15 28
M  ZZI  15 11
M  ZZM  16 28
M  ZZI  16 11
M  ZZM  17 64
M  ZZI  17 105
M  ZZM  18 5
M  ZZI  18 1
M  ZZM  19 64
M  ZZI  19 105
M  ZZM  20 65
M  ZZI  20 207
M  ZZM  21 1
M  ZZI  21 112
M  ZZM  22 5
M  ZZI  22 1
M  ZZM  23 5
M  ZZI  23 1
M  ZZM  24 1
M  ZZI  24 112
M  ZZM  25 5
M  ZZI  25 1
M  ZZM  26 5
M  ZZI  26 1
M  ZZM  27 1
M  ZZI  27 112
M  ZZM  28 5
M  ZZI  28 1
M  ZZM  29 5
M  ZZI  29 1
M  ZZM  30 10
M  ZZI  30 211
M  ZZM  31 28
M  ZZI  31 11
M  ZZM  32 3
M  ZZI  32 121
M  ZZM  33 7
M  ZZI  33 81
M  ZZM  34 1
M  ZZI  34 112
M  ZZM  35 5
M  ZZI  35 1
M  ZZM  36 5
M  ZZI  36 1
M  ZZM  37 37
M  ZZI  37 124
M  ZZM  38 37
M  ZZI  38 124
M  ZZM  39 1
M  ZZI  39 111
M  ZZM  40 5
M  ZZI  40 1
M  ZZM  41 5
M  ZZI  41 1
M  ZZM  42 5
M  ZZI  42 1
M  ZZM  43 37
M  ZZI  43 125
M  ZZM  44 5
M  ZZI  44 1
M  ZZM  45 37
M  ZZI  45 125
M  ZZM  46 5
M  ZZI  46 1
M  ZZM  47 37
M  ZZI  47 125
M  ZZM  48 5
M  ZZI  48 1
M  ZZM  49 37
M  ZZI  49 125
M  ZZM  50 5
M  ZZI  50 1
M  END
> <NAME>
Z395855874

> <Score>
-26.138926

> <Natom>
50

> <Nflex>
7

> <Hbond>
-4.03494

> <Hphob>
-6.621139

> <VwInt>
-27.778627

> <Eintl>
5.610554

> <Dsolv>
11.488169

> <SolEl>
5.254749

> <mfScore>
-120.00439

> <RecConf>
1

> <molLogP>
3.488877

$$$$
Z336583280
  MOLSOFT 11211612053D

 50 52  0  0  1  0  0  0  0  0999 V2000
  -33.7292    3.2366   65.8925 H   0  0  0
  -34.3469    2.5793   66.5051 C   0  0  0
  -33.7769    1.6676   66.6921 H   0  0  0
  -35.2341    2.3223   65.9247 H   0  0  0
  -34.7236    3.2436   67.7678 C   0  0  0
  -35.3777    4.4536   67.8986 C   0  0  0
  -35.5404    4.7598   69.2200 O   0  0  0
  -34.9988    3.7402   69.9405 C   0  0  0
  -34.4873    2.7774   69.0937 C   0  0  0
  -33.8950    1.6566   69.6574 C   0  0  0
  -33.4822    0.8648   69.0410 H   0  0  0
  -33.8369    1.5777   71.0363 C   0  0  0
  -33.3658    0.7158   71.4961 H   0  0  0
  -34.3590    2.5644   71.8490 C   0  0  0
  -34.2928    2.4577   72.9274 H   0  0  0
  -34.9655    3.6824   71.3158 C   0  0  0
  -35.3829    4.4673   71.9374 H   0  0  0
  -35.8923    5.3831   66.9331 C   0  0  0
  -35.8720    5.2156   65.7209 O   0  0  0
  -36.4288    6.5003   67.5336 N   0  0  0
  -36.4852    6.5995   68.5447 H   0  0  0
  -37.0092    7.4855   66.7336 N   0  0  0
  -37.9320    7.3196   66.3536 H   0  0  0
  -36.3543    8.6488   66.4501 C   0  0  0
  -36.8332    9.5128   65.7373 O   0  0  0
  -35.1317    8.7330   67.0443 N   0  0  0
  -34.8039    7.9240   67.5541 H   0  0  0
  -34.2418    9.8453   66.8153 C   0  0  1
  -34.7882   10.6044   66.2465 H   0  0  0
  -33.8872   10.4650   68.1708 C   0  0  0
  -34.8116   10.5920   68.7459 H   0  0  0
  -33.2671    9.7882   68.7678 H   0  0  0
  -33.2189   11.8277   68.0433 C   0  0  0
  -32.2834   11.7531   67.4819 H   0  0  0
  -33.8690   12.5135   67.4914 H   0  0  0
  -32.9322   12.4077   69.4132 C   0  0  0
  -32.2359   11.7772   69.9732 H   0  0  0
  -32.4862   13.3948   69.3068 H   0  0  0
  -33.8459   12.5151   70.0017 H   0  0  0
  -33.1062    9.3629   65.9376 C   0  0  0
  -33.2103    9.2312   64.5574 C   0  0  0
  -34.1436    9.4270   64.0412 H   0  0  0
  -32.1164    8.8586   63.8052 C   0  0  0
  -32.2123    8.7577   62.7289 H   0  0  0
  -30.8978    8.6246   64.4062 C   0  0  0
  -30.0377    8.3408   63.8069 H   0  0  0
  -30.7726    8.7624   65.7680 C   0  0  0
  -29.8084    8.6008   66.2393 H   0  0  0
  -31.8673    9.1228   66.5247 C   0  0  0
  -31.7414    9.2397   67.5976 H   0  0  0
  2  1  1
  2  3  1
  2  4  1
  2  5  1
  5  6  2
  5  9  1
  6  7  1
  6 18  1
  7  8  1
  8  9  2
  8 16  1
  9 10  1
 10 11  1
 10 12  2
 12 13  1
 12 14  1
 14 15  1
 14 16  2
 16 17  1
 18 19  2
 18 20  1
 20 21  1
 20 22  1
 22 23  1
 22 24  1
 24 25  2
 24 26  1
 26 27  1
 28 26  1
 28 29  1
 28 30  1
 28 40  1
 30 31  1
 30 32  1
 30 33  1
 33 34  1
 33 35  1
 33 36  1
 36 37  1
 36 38  1
 36 39  1
 40 41  2
 40 49  1
 41 42  1
 41 43  1
 43 44  1
 43 45  2
 45 46  1
 45 47  1
 47 48  1
 47 49  2
 49 50  1
M  ZZC   1 h1
M  ZZC   2 c21
M  ZZC   3 h2
M  ZZC   4 h3
M  ZZC   5 c14
M  ZZC   6 c13
M  ZZC   7 o3
M  ZZC   8 c20
M  ZZC   9 c15
M  ZZC  10 c16
M  ZZC  11 h7
M  ZZC  12 c17
M  ZZC  13 h6
M  ZZC  14 c18
M  ZZC  15 h5
M  ZZC  16 c19
M  ZZC  17 h4
M  ZZC  18 c12
M  ZZC  19 o2
M  ZZC  20 n3
M  ZZC  21 h8
M  ZZC  22 n2
M  ZZC  23 h9
M  ZZC  24 c11
M  ZZC  25 o1
M  ZZC  26 n1
M  ZZC  27 h10
M  ZZC  28 c4
M  ZZC  29 h23
M  ZZC  30 c3
M  ZZC  31 h16
M  ZZC  32 h17
M  ZZC  33 c2
M  ZZC  34 h18
M  ZZC  35 h19
M  ZZC  36 c1
M  ZZC  37 h20
M  ZZC  38 h21
M  ZZC  39 h22
M  ZZC  40 c5
M  ZZC  41 c10
M  ZZC  42 h11
M  ZZC  43 c9
M  ZZC  44 h12
M  ZZC  45 c8
M  ZZC  46 h13
M  ZZC  47 c7
M  ZZC  48 h14
M  ZZC  49 c6
M  ZZC  50 h15
M  ZZM   1 5
M  ZZI   1 1
M  ZZM   2 1
M  ZZI   2 111
M  ZZM   3 5
M  ZZI   3 1
M  ZZM   4 5
M  ZZI   4 1
M  ZZM   5 64
M  ZZI   5 105
M  ZZM   6 63
M  ZZI   6 104
M  ZZM   7 59
M  ZZI   7 56
M  ZZM   8 63
M  ZZI   8 104
M  ZZM   9 64
M  ZZI   9 105
M  ZZM  10 37
M  ZZI  10 125
M  ZZM  11 5
M  ZZI  11 1
M  ZZM  12 37
M  ZZI  12 125
M  ZZM  13 5
M  ZZI  13 1
M  ZZM  14 37
M  ZZI  14 125
M  ZZM  15 5
M  ZZI  15 1
M  ZZM  16 37
M  ZZI  16 125
M  ZZM  17 5
M  ZZI  17 1
M  ZZM  18 3
M  ZZI  18 121
M  ZZM  19 7
M  ZZI  19 81
M  ZZM  20 10
M  ZZI  20 191
M  ZZM  21 28
M  ZZI  21 11
M  ZZM  22 10
M  ZZI  22 191
M  ZZM  23 28
M  ZZI  23 11
M  ZZM  24 3
M  ZZI  24 121
M  ZZM  25 7
M  ZZI  25 81
M  ZZM  26 10
M  ZZI  26 211
M  ZZM  27 28
M  ZZI  27 11
M  ZZM  28 1
M  ZZI  28 113
M  ZZM  29 5
M  ZZI  29 1
M  ZZM  30 1
M  ZZI  30 112
M  ZZM  31 5
M  ZZI  31 1
M  ZZM  32 5
M  ZZI  32 1
M  ZZM  33 1
M  ZZI  33 112
M  ZZM  34 5
M  ZZI  34 1
M  ZZM  35 5
M  ZZI  35 1
M  ZZM  36 1
M  ZZI  36 111
M  ZZM  37 5
M  ZZI  37 1
M  ZZM  38 5
M  ZZI  38 1
M  ZZM  39 5
M  ZZI  39 1
M  ZZM  40 37
M  ZZI  40 124
M  ZZM  41 37
M  ZZI  41 125
M  ZZM  42 5
M  ZZI  42 1
M  ZZM  43 37
M  ZZI  43 125
M  ZZM  44 5
M  ZZI  44 1
M  ZZM  45 37
M  ZZI  45 125
M  ZZM  46 5
M  ZZI  46 1
M  ZZM  47 37
M  ZZI  47 125
M  ZZM  48 5
M  ZZI  48 1
M  ZZM  49 37
M  ZZI  49 125
M  ZZM  50 5
M  ZZI  50 1
M  END
> <NAME>
Z336583280

> <Score>
-26.042926

> <Natom>
50

> <Nflex>
6

> <Hbond>
-3.030077

> <Hphob>
-7.51678

> <VwInt>
-31.15527

> <Eintl>
6.529303

> <Dsolv>
11.647592

> <SolEl>
8.301496

> <mfScore>
-101.085138

> <RecConf>
1

> <molLogP>
4.374982

$$$$
Z126245726
  MOLSOFT 11211612053D

 50 54  0  0  1  0  0  0  0  0999 V2000
  -34.2406    2.5783   70.6780 H   0  0  0
  -34.4421    2.7045   69.6233 C   0  0  0
  -34.3708    1.8736   68.5318 C   0  0  0
  -34.0670    0.8367   68.5330 H   0  0  0
  -34.7812    2.6520   67.4243 C   0  0  0
  -34.8520    2.3255   66.3961 H   0  0  0
  -35.0775    3.9158   67.8971 C   0  0  0
  -34.8605    3.9452   69.2466 O   0  0  0
  -35.5318    5.0436   67.1582 C   0  0  0
  -35.6203    6.3607   67.5461 C   0  0  0
  -35.3407    6.7682   68.5069 H   0  0  0
  -36.0688    7.0619   66.3995 C   0  0  0
  -36.3210    6.2165   65.3931 N   0  0  0
  -35.9529    4.9548   65.8648 O   0  0  0
  -36.2136    8.5340   66.2011 C   0  0  0
  -36.6616    8.7374   65.2233 H   0  0  0
  -36.9531    8.9073   66.9111 H   0  0  0
  -34.9858    9.3368   66.3422 N   0  0  0
  -33.8537    9.0160   65.5428 C   0  0  0
  -32.5553    9.2965   65.9747 C   0  0  0
  -31.4525    8.8356   65.2841 C   0  0  0
  -30.4555    9.0040   65.6763 H   0  0  0
  -31.6077    8.1868   64.0805 C   0  0  0
  -30.7398    7.8492   63.5218 H   0  0  0
  -32.8735    7.9834   63.5839 C   0  0  0
  -33.0050    7.4885   62.6266 H   0  0  0
  -33.9766    8.3867   64.3067 C   0  0  0
  -34.9507    8.1904   63.8769 H   0  0  0
  -32.2817   10.0342   67.1252 O   0  0  0
  -33.4368   10.8119   67.4754 C   0  0  1
  -33.6034   11.5430   66.6746 H   0  0  0
  -34.6650    9.9307   67.6366 C   0  0  0
  -35.5131   10.5209   67.9986 H   0  0  0
  -34.4937    9.1345   68.3674 H   0  0  0
  -33.1917   11.6306   68.7320 C   0  0  0
  -33.4380   12.8270   68.7118 O   0  0  0
  -32.7351   10.9990   69.8912 N   0  0  0
  -32.5191   11.7960   71.0891 C   0  0  0
  -33.1356   11.3566   71.8806 H   0  0  0
  -32.8488   12.8268   70.9392 H   0  0  0
  -31.0458   11.7524   71.4813 C   0  0  0
  -30.4180   12.2346   70.7243 H   0  0  0
  -30.8894   12.2822   72.4250 H   0  0  0
  -30.6095   10.3930   71.6522 O   0  0  0
  -30.7887    9.6435   70.4385 C   0  0  0
  -30.4328    8.6249   70.6138 H   0  0  0
  -30.1648   10.0812   69.6535 H   0  0  0
  -32.2556    9.6284   70.0227 C   0  0  0
  -32.3796    9.0533   69.1067 H   0  0  0
  -32.8634    9.1525   70.7998 H   0  0  0
  2  1  1
  2  3  2
  2  8  1
  3  4  1
  3  5  1
  5  6  1
  5  7  2
  7  8  1
  7  9  1
  9 10  2
  9 14  1
 10 11  1
 10 12  1
 12 13  2
 12 15  1
 13 14  1
 15 16  1
 15 17  1
 15 18  1
 18 19  1
 18 32  1
 19 20  1
 19 27  2
 20 21  2
 20 29  1
 21 22  1
 21 23  1
 23 24  1
 23 25  2
 25 26  1
 25 27  1
 27 28  1
 30 29  1
 30 31  1
 30 32  1
 30 35  1
 32 33  1
 32 34  1
 35 36  2
 35 37  1
 37 38  1
 37 48  1
 38 39  1
 38 40  1
 38 41  1
 41 42  1
 41 43  1
 41 44  1
 44 45  1
 45 46  1
 45 47  1
 45 48  1
 48 49  1
 48 50  1
M  ZZC   1 h1
M  ZZC   2 c21
M  ZZC   3 c20
M  ZZC   4 h2
M  ZZC   5 c19
M  ZZC   6 h3
M  ZZC   7 c18
M  ZZC   8 o5
M  ZZC   9 c17
M  ZZC  10 c16
M  ZZC  11 h4
M  ZZC  12 c15
M  ZZC  13 n3
M  ZZC  14 o4
M  ZZC  15 c14
M  ZZC  16 h5
M  ZZC  17 h6
M  ZZC  18 n1
M  ZZC  19 c5
M  ZZC  20 c4
M  ZZC  21 c3
M  ZZC  22 h18
M  ZZC  23 c2
M  ZZC  24 h19
M  ZZC  25 c1
M  ZZC  26 h20
M  ZZC  27 c6
M  ZZC  28 h17
M  ZZC  29 o1
M  ZZC  30 c8
M  ZZC  31 h21
M  ZZC  32 c7
M  ZZC  33 h15
M  ZZC  34 h16
M  ZZC  35 c9
M  ZZC  36 o2
M  ZZC  37 n2
M  ZZC  38 c10
M  ZZC  39 h13
M  ZZC  40 h14
M  ZZC  41 c11
M  ZZC  42 h11
M  ZZC  43 h12
M  ZZC  44 o3
M  ZZC  45 c12
M  ZZC  46 h10
M  ZZC  47 h9
M  ZZC  48 c13
M  ZZC  49 h7
M  ZZC  50 h8
M  ZZM   1 5
M  ZZI   1 1
M  ZZM   2 63
M  ZZI   2 104
M  ZZM   3 64
M  ZZI   3 105
M  ZZM   4 5
M  ZZI   4 1
M  ZZM   5 64
M  ZZI   5 105
M  ZZM   6 5
M  ZZI   6 1
M  ZZM   7 63
M  ZZI   7 104
M  ZZM   8 59
M  ZZI   8 56
M  ZZM   9 63
M  ZZI   9 104
M  ZZM  10 64
M  ZZI  10 105
M  ZZM  11 5
M  ZZI  11 1
M  ZZM  12 64
M  ZZI  12 105
M  ZZM  13 65
M  ZZI  13 207
M  ZZM  14 59
M  ZZI  14 56
M  ZZM  15 1
M  ZZI  15 112
M  ZZM  16 5
M  ZZI  16 1
M  ZZM  17 5
M  ZZI  17 1
M  ZZM  18 40
M  ZZI  18 193
M  ZZM  19 37
M  ZZI  19 124
M  ZZM  20 37
M  ZZI  20 124
M  ZZM  21 37
M  ZZI  21 125
M  ZZM  22 5
M  ZZI  22 1
M  ZZM  23 37
M  ZZI  23 125
M  ZZM  24 5
M  ZZI  24 1
M  ZZM  25 37
M  ZZI  25 125
M  ZZM  26 5
M  ZZI  26 1
M  ZZM  27 37
M  ZZI  27 125
M  ZZM  28 5
M  ZZI  28 1
M  ZZM  29 6
M  ZZI  29 59
M  ZZM  30 1
M  ZZI  30 113
M  ZZM  31 5
M  ZZI  31 1
M  ZZM  32 1
M  ZZI  32 112
M  ZZM  33 5
M  ZZI  33 1
M  ZZM  34 5
M  ZZI  34 1
M  ZZM  35 3
M  ZZI  35 121
M  ZZM  36 7
M  ZZI  36 81
M  ZZM  37 10
M  ZZI  37 192
M  ZZM  38 1
M  ZZI  38 112
M  ZZM  39 5
M  ZZI  39 1
M  ZZM  40 5
M  ZZI  40 1
M  ZZM  41 1
M  ZZI  41 112
M  ZZM  42 5
M  ZZI  42 1
M  ZZM  43 5
M  ZZI  43 1
M  ZZM  44 6
M  ZZI  44 65
M  ZZM  45 1
M  ZZI  45 112
M  ZZM  46 5
M  ZZI  46 1
M  ZZM  47 5
M  ZZI  47 1
M  ZZM  48 1
M  ZZI  48 112
M  ZZM  49 5
M  ZZI  49 1
M  ZZM  50 5
M  ZZI  50 1
M  END
> <NAME>
Z126245726

> <Score>
-25.470514

> <Natom>
50

> <Nflex>
4

> <Hbond>
-1.579757

> <Hphob>
-7.714883

> <VwInt>
-34.303039

> <Eintl>
7.68261

> <Dsolv>
13.916218

> <SolEl>
7.819875

> <mfScore>
-100.311632

> <RecConf>
1

> <molLogP>
1.939417

$$$$
Z95982144
  MOLSOFT 11211612053D

 50 52  0  0  0  0  0  0  0  0999 V2000
  -29.8142    9.1789   68.6943 O   0  0  0
  -30.8154    9.7658   69.0847 C   0  0  0
  -30.8631   10.4027   70.4505 C   0  0  0
  -31.3753    9.7410   71.1552 H   0  0  0
  -31.3513   11.3808   70.4122 H   0  0  0
  -29.8404   10.5776   70.7963 H   0  0  0
  -32.0276    9.8300   68.2143 C   0  0  0
  -33.2374   10.3107   68.7060 C   0  0  0
  -33.3431   10.6585   69.7281 H   0  0  0
  -34.3488   10.3508   67.8896 C   0  0  0
  -35.2775   10.7545   68.2799 H   0  0  0
  -34.2558    9.9008   66.5826 C   0  0  0
  -33.0497    9.4567   66.0693 C   0  0  0
  -31.9294    9.3999   66.8934 C   0  0  0
  -30.9772    9.0449   66.5153 H   0  0  0
  -33.0580    9.1053   64.7148 O   0  0  0
  -31.9999    8.2243   64.3388 C   0  0  0
  -31.0420    8.7509   64.2972 H   0  0  0
  -32.2198    7.8509   63.3350 H   0  0  0
  -31.9621    7.3656   65.0125 H   0  0  0
  -35.3608    9.8987   65.7309 O   0  0  0
  -36.4367    9.1181   66.2834 C   0  0  0
  -36.6057    9.3531   67.3353 H   0  0  0
  -37.3536    9.3878   65.7502 H   0  0  0
  -36.2067    7.6308   66.0889 C   0  0  0
  -36.3366    7.1180   64.9873 O   0  0  0
  -35.8555    6.9682   67.2557 N   0  0  0
  -35.8705    7.4799   68.1304 H   0  0  0
  -35.5166    5.5964   67.3398 C   0  0  0
  -35.3408    4.7945   66.2246 C   0  0  0
  -35.4478    5.1854   65.2214 H   0  0  0
  -35.0010    3.4687   66.3774 C   0  0  0
  -34.8604    2.8399   65.5055 H   0  0  0
  -34.8422    2.9287   67.6333 C   0  0  0
  -34.5966    1.8755   67.7007 H   0  0  0
  -35.0152    3.7120   68.7655 C   0  0  0
  -35.3438    5.0521   68.6001 C   0  0  0
  -35.4791    5.6950   69.4605 H   0  0  0
  -34.8651    3.1406   70.0638 N   0  0  0
  -34.4750    1.7623   70.2602 C   0  0  0
  -33.6446    1.4766   69.6064 H   0  0  0
  -35.3442    1.1199   70.0747 H   0  0  0
  -34.0540    1.7201   71.7072 C   0  0  0
  -33.0026    2.0183   71.7957 H   0  0  0
  -34.1595    0.7281   72.1544 H   0  0  0
  -34.9315    2.7637   72.3628 C   0  0  0
  -34.4459    3.2195   73.2315 H   0  0  0
  -35.9046    2.3504   72.6506 H   0  0  0
  -35.1371    3.7702   71.2655 C   0  0  0
  -35.5240    4.9119   71.4701 O   0  0  0
  2  1  2
  2  3  1
  2  7  1
  3  4  1
  3  5  1
  3  6  1
  7  8  2
  7 14  1
  8  9  1
  8 10  1
 10 11  1
 10 12  2
 12 13  1
 12 21  1
 13 14  2
 13 16  1
 14 15  1
 16 17  1
 17 18  1
 17 19  1
 17 20  1
 21 22  1
 22 23  1
 22 24  1
 22 25  1
 25 26  2
 25 27  1
 27 28  1
 27 29  1
 29 30  2
 29 37  1
 30 31  1
 30 32  1
 32 33  1
 32 34  2
 34 35  1
 34 36  1
 36 37  2
 36 39  1
 37 38  1
 39 40  1
 39 49  1
 40 41  1
 40 42  1
 40 43  1
 43 44  1
 43 45  1
 43 46  1
 46 47  1
 46 48  1
 46 49  1
 49 50  2
M  ZZC   1 o1
M  ZZC   2 c2
M  ZZC   3 c1
M  ZZC   4 h20
M  ZZC   5 h21
M  ZZC   6 h22
M  ZZC   7 c3
M  ZZC   8 c4
M  ZZC   9 h19
M  ZZC  10 c5
M  ZZC  11 h18
M  ZZC  12 c6
M  ZZC  13 c7
M  ZZC  14 c8
M  ZZC  15 h17
M  ZZC  16 o2
M  ZZC  17 c9
M  ZZC  18 h14
M  ZZC  19 h15
M  ZZC  20 h16
M  ZZC  21 o3
M  ZZC  22 c10
M  ZZC  23 h12
M  ZZC  24 h13
M  ZZC  25 c11
M  ZZC  26 o4
M  ZZC  27 n1
M  ZZC  28 h11
M  ZZC  29 c12
M  ZZC  30 c13
M  ZZC  31 h10
M  ZZC  32 c14
M  ZZC  33 h9
M  ZZC  34 c15
M  ZZC  35 h8
M  ZZC  36 c16
M  ZZC  37 c17
M  ZZC  38 h7
M  ZZC  39 n2
M  ZZC  40 c18
M  ZZC  41 h5
M  ZZC  42 h6
M  ZZC  43 c19
M  ZZC  44 h3
M  ZZC  45 h4
M  ZZC  46 c20
M  ZZC  47 h1
M  ZZC  48 h2
M  ZZC  49 c21
M  ZZC  50 o5
M  ZZM   1 7
M  ZZI   1 80
M  ZZM   2 3
M  ZZI   2 122
M  ZZM   3 1
M  ZZI   3 111
M  ZZM   4 5
M  ZZI   4 1
M  ZZM   5 5
M  ZZI   5 1
M  ZZM   6 5
M  ZZI   6 1
M  ZZM   7 37
M  ZZI   7 124
M  ZZM   8 37
M  ZZI   8 125
M  ZZM   9 5
M  ZZI   9 1
M  ZZM  10 37
M  ZZI  10 125
M  ZZM  11 5
M  ZZI  11 1
M  ZZM  12 37
M  ZZI  12 124
M  ZZM  13 37
M  ZZI  13 124
M  ZZM  14 37
M  ZZI  14 125
M  ZZM  15 5
M  ZZI  15 1
M  ZZM  16 6
M  ZZI  16 59
M  ZZM  17 1
M  ZZI  17 111
M  ZZM  18 5
M  ZZI  18 1
M  ZZM  19 5
M  ZZI  19 1
M  ZZM  20 5
M  ZZI  20 1
M  ZZM  21 6
M  ZZI  21 59
M  ZZM  22 1
M  ZZI  22 112
M  ZZM  23 5
M  ZZI  23 1
M  ZZM  24 5
M  ZZI  24 1
M  ZZM  25 3
M  ZZI  25 121
M  ZZM  26 7
M  ZZI  26 81
M  ZZM  27 10
M  ZZI  27 191
M  ZZM  28 28
M  ZZI  28 11
M  ZZM  29 37
M  ZZI  29 124
M  ZZM  30 37
M  ZZI  30 125
M  ZZM  31 5
M  ZZI  31 1
M  ZZM  32 37
M  ZZI  32 125
M  ZZM  33 5
M  ZZI  33 1
M  ZZM  34 37
M  ZZI  34 125
M  ZZM  35 5
M  ZZI  35 1
M  ZZM  36 37
M  ZZI  36 124
M  ZZM  37 37
M  ZZI  37 125
M  ZZM  38 5
M  ZZI  38 1
M  ZZM  39 10
M  ZZI  39 192
M  ZZM  40 1
M  ZZI  40 112
M  ZZM  41 5
M  ZZI  41 1
M  ZZM  42 5
M  ZZI  42 1
M  ZZM  43 1
M  ZZI  43 112
M  ZZM  44 5
M  ZZI  44 1
M  ZZM  45 5
M  ZZI  45 1
M  ZZM  46 1
M  ZZI  46 112
M  ZZM  47 5
M  ZZI  47 1
M  ZZM  48 5
M  ZZI  48 1
M  ZZM  49 3
M  ZZI  49 121
M  ZZM  50 7
M  ZZI  50 81
M  END
> <NAME>
Z95982144

> <Score>
-25.429292

> <Natom>
50

> <Nflex>
2

> <Hbond>
-2.916481

> <Hphob>
-7.428202

> <VwInt>
-30.420623

> <Eintl>
6.484021

> <Dsolv>
15.043112

> <SolEl>
7.370588

> <mfScore>
-103.210188

> <RecConf>
1

> <molLogP>
2.054189

$$$$
Z15686091
  MOLSOFT 11211612053D

 50 52  0  0  1  0  0  0  0  0999 V2000
  -29.7088   10.0770   72.1808 H   0  0  0
  -30.4954   10.7342   71.8249 C   0  0  0
  -30.7336   11.9330   72.4651 C   0  0  0
  -30.1210   12.2199   73.3117 H   0  0  0
  -31.7493   12.7659   72.0390 C   0  0  0
  -31.9443   13.6917   72.5720 H   0  0  0
  -32.5291   12.4189   70.9532 C   0  0  0
  -33.3483   13.0661   70.6625 H   0  0  0
  -32.2653   11.2397   70.2762 C   0  0  0
  -31.2506   10.3978   70.7154 C   0  0  0
  -30.9293    9.1470   69.9839 C   0  0  0
  -30.6920    8.1101   70.5853 O   0  0  0
  -30.8913    9.2683   68.6217 N   0  0  0
  -30.6884    8.4593   68.0473 H   0  0  0
  -31.0547   10.1559   68.1555 H   0  0  0
  -33.0300   10.8126   69.1949 O   0  0  0
  -33.4885   11.8789   68.3496 C   0  0  0
  -34.3824   12.3589   68.7584 H   0  0  0
  -32.6980   12.6100   68.1471 H   0  0  0
  -33.8304   11.1402   67.0772 C   0  0  0
  -33.1781   11.2877   66.0548 O   0  0  0
  -34.9048   10.2856   67.2231 N   0  0  0
  -35.4584   10.3457   68.0708 H   0  0  0
  -35.2101    9.2186   66.2847 C   0  0  2
  -34.4904    9.2707   65.4604 H   0  0  0
  -36.6205    9.3905   65.7390 C   0  0  0
  -36.8951    8.5755   65.0695 H   0  0  0
  -36.7150   10.3174   65.1744 H   0  0  0
  -37.3634    9.4144   66.5400 H   0  0  0
  -35.0918    7.8595   66.9390 C   0  0  0
  -34.9076    7.7140   68.3054 C   0  0  0
  -34.7838    8.5710   68.9577 H   0  0  0
  -34.8782    6.4686   68.8867 C   0  0  0
  -34.7133    6.4227   69.9584 H   0  0  0
  -35.0328    5.3059   68.1448 C   0  0  0
  -35.1885    5.4529   66.7724 C   0  0  0
  -35.3144    4.5836   66.1346 H   0  0  0
  -35.2020    6.7010   66.1823 C   0  0  0
  -35.3185    6.7635   65.1049 H   0  0  0
  -35.0084    3.9987   68.7980 C   0  0  0
  -35.5018    3.8421   70.0897 C   0  0  0
  -35.9697    4.6717   70.6101 H   0  0  0
  -35.4236    2.6356   70.7482 C   0  0  0
  -35.8120    2.5400   71.7574 H   0  0  0
  -34.8503    1.5523   70.1276 C   0  0  0
  -34.7746    0.6158   70.6605 H   0  0  0
  -34.3818    1.6673   68.8383 C   0  0  0
  -33.9395    0.8095   68.3417 H   0  0  0
  -34.4697    2.8752   68.1778 C   0  0  0
  -34.0821    2.9300   67.1659 H   0  0  0
  2  1  1
  2  3  1
  2 10  2
  3  4  1
  3  5  2
  5  6  1
  5  7  1
  7  8  1
  7  9  2
  9 10  1
  9 16  1
 10 11  1
 11 12  2
 11 13  1
 13 14  1
 13 15  1
 16 17  1
 17 18  1
 17 19  1
 17 20  1
 20 21  2
 20 22  1
 22 23  1
 24 22  1
 24 25  1
 24 26  1
 24 30  1
 26 27  1
 26 28  1
 26 29  1
 30 31  2
 30 38  1
 31 32  1
 31 33  1
 33 34  1
 33 35  2
 35 36  1
 35 40  1
 36 37  1
 36 38  2
 38 39  1
 40 41  2
 40 49  1
 41 42  1
 41 43  1
 43 44  1
 43 45  2
 45 46  1
 45 47  1
 47 48  1
 47 49  2
 49 50  1
M  ZZC   1 h3
M  ZZC   2 c21
M  ZZC   3 c20
M  ZZC   4 h4
M  ZZC   5 c19
M  ZZC   6 h5
M  ZZC   7 c18
M  ZZC   8 h6
M  ZZC   9 c17
M  ZZC  10 c22
M  ZZC  11 c23
M  ZZC  12 o3
M  ZZC  13 n2
M  ZZC  14 h1
M  ZZC  15 h2
M  ZZC  16 o2
M  ZZC  17 c16
M  ZZC  18 h7
M  ZZC  19 h8
M  ZZC  20 c15
M  ZZC  21 o1
M  ZZC  22 n1
M  ZZC  23 h9
M  ZZC  24 c2
M  ZZC  25 h22
M  ZZC  26 c1
M  ZZC  27 h19
M  ZZC  28 h20
M  ZZC  29 h21
M  ZZC  30 c3
M  ZZC  31 c4
M  ZZC  32 h18
M  ZZC  33 c5
M  ZZC  34 h17
M  ZZC  35 c6
M  ZZC  36 c7
M  ZZC  37 h16
M  ZZC  38 c8
M  ZZC  39 h15
M  ZZC  40 c9
M  ZZC  41 c10
M  ZZC  42 h14
M  ZZC  43 c11
M  ZZC  44 h13
M  ZZC  45 c12
M  ZZC  46 h12
M  ZZC  47 c13
M  ZZC  48 h11
M  ZZC  49 c14
M  ZZC  50 h10
M  ZZM   1 5
M  ZZI   1 1
M  ZZM   2 37
M  ZZI   2 125
M  ZZM   3 37
M  ZZI   3 125
M  ZZM   4 5
M  ZZI   4 1
M  ZZM   5 37
M  ZZI   5 125
M  ZZM   6 5
M  ZZI   6 1
M  ZZM   7 37
M  ZZI   7 125
M  ZZM   8 5
M  ZZI   8 1
M  ZZM   9 37
M  ZZI   9 124
M  ZZM  10 37
M  ZZI  10 124
M  ZZM  11 3
M  ZZI  11 121
M  ZZM  12 7
M  ZZI  12 81
M  ZZM  13 10
M  ZZI  13 212
M  ZZM  14 28
M  ZZI  14 11
M  ZZM  15 28
M  ZZI  15 11
M  ZZM  16 6
M  ZZI  16 59
M  ZZM  17 1
M  ZZI  17 112
M  ZZM  18 5
M  ZZI  18 1
M  ZZM  19 5
M  ZZI  19 1
M  ZZM  20 3
M  ZZI  20 121
M  ZZM  21 7
M  ZZI  21 81
M  ZZM  22 10
M  ZZI  22 211
M  ZZM  23 28
M  ZZI  23 11
M  ZZM  24 1
M  ZZI  24 113
M  ZZM  25 5
M  ZZI  25 1
M  ZZM  26 1
M  ZZI  26 111
M  ZZM  27 5
M  ZZI  27 1
M  ZZM  28 5
M  ZZI  28 1
M  ZZM  29 5
M  ZZI  29 1
M  ZZM  30 37
M  ZZI  30 124
M  ZZM  31 37
M  ZZI  31 125
M  ZZM  32 5
M  ZZI  32 1
M  ZZM  33 37
M  ZZI  33 125
M  ZZM  34 5
M  ZZI  34 1
M  ZZM  35 37
M  ZZI  35 124
M  ZZM  36 37
M  ZZI  36 125
M  ZZM  37 5
M  ZZI  37 1
M  ZZM  38 37
M  ZZI  38 125
M  ZZM  39 5
M  ZZI  39 1
M  ZZM  40 37
M  ZZI  40 124
M  ZZM  41 37
M  ZZI  41 125
M  ZZM  42 5
M  ZZI  42 1
M  ZZM  43 37
M  ZZI  43 125
M  ZZM  44 5
M  ZZI  44 1
M  ZZM  45 37
M  ZZI  45 125
M  ZZM  46 5
M  ZZI  46 1
M  ZZM  47 37
M  ZZI  47 125
M  ZZM  48 5
M  ZZI  48 1
M  ZZM  49 37
M  ZZI  49 125
M  ZZM  50 5
M  ZZI  50 1
M  END
> <NAME>
Z15686091

> <Score>
-25.390252

> <Natom>
50

> <Nflex>
5

> <Hbond>
-3.329751

> <Hphob>
-7.368357

> <VwInt>
-29.779603

> <Eintl>
8.054297

> <Dsolv>
14.976825

> <SolEl>
5.330003

> <mfScore>
-89.686306

> <RecConf>
1

> <molLogP>
3.637427

$$$$
Z195566276
  MOLSOFT 11211612053D

 50 54  0  0  1  0  0  0  0  0999 V2000
  -30.6647    8.2740   64.6545 H   0  0  0
  -31.7269    8.3733   64.4819 C   0  0  0
  -32.5460    8.1003   63.4129 C   0  0  0
  -32.2389    7.6982   62.4593 H   0  0  0
  -33.8546    8.4399   63.8198 C   0  0  0
  -34.7615    8.3422   63.2412 H   0  0  0
  -33.7556    8.9188   65.1101 C   0  0  0
  -32.4523    8.8706   65.5213 O   0  0  0
  -34.7709    9.4369   66.0812 C   0  0  2
  -35.6098    9.8829   65.5356 H   0  0  0
  -34.1847   10.3944   67.1059 C   0  0  0
  -33.2191   10.8280   66.8257 H   0  0  0
  -34.8848   11.1966   67.3594 H   0  0  0
  -34.0942    9.4655   68.2862 C   0  0  0
  -33.2925    9.7768   69.4949 C   0  0  0
  -33.1861    8.9605   70.2018 H   0  0  0
  -32.6853   10.9592   69.6785 C   0  0  0
  -32.7998   11.7807   68.9791 H   0  0  0
  -31.8233   11.1346   70.7829 C   0  0  0
  -31.1823   12.2855   71.2003 C   0  0  0
  -31.2710   13.2532   70.7350 H   0  0  0
  -30.3791   11.9664   72.3174 C   0  0  0
  -29.7405   12.6289   72.8834 H   0  0  0
  -30.5721   10.6271   72.5399 C   0  0  0
  -30.1874    9.9198   73.2610 H   0  0  0
  -31.4446   10.1226   71.6255 O   0  0  0
  -34.7630    8.3652   68.1651 N   0  0  0
  -35.2542    8.3463   66.8976 N   0  0  0
  -36.0545    7.3012   66.4537 C   0  0  0
  -36.4372    7.1892   65.2946 O   0  0  0
  -36.3996    6.2736   67.5207 C   0  0  0
  -37.4597    6.0239   67.4177 H   0  0  0
  -36.2764    6.7108   68.5142 H   0  0  0
  -35.5663    5.0680   67.3614 N   0  0  0
  -35.3006    4.1338   68.3737 C   0  0  0
  -35.4910    4.2768   69.7352 C   0  0  0
  -35.9026    5.1885   70.1524 H   0  0  0
  -35.1414    3.2272   70.5682 C   0  0  0
  -35.2883    3.3210   71.6394 H   0  0  0
  -34.6031    2.0600   70.0501 C   0  0  0
  -34.3307    1.2472   70.7156 H   0  0  0
  -34.4121    1.9257   68.6885 C   0  0  0
  -33.9896    1.0176   68.2701 H   0  0  0
  -34.7790    2.9790   67.8758 C   0  0  0
  -34.6644    3.0581   66.3955 C   0  0  0
  -35.1345    2.2084   65.8975 H   0  0  0
  -33.6175    3.1028   66.0890 H   0  0  0
  -35.3975    4.3638   66.0882 C   0  0  0
  -34.8412    4.9711   65.3684 H   0  0  0
  -36.3789    4.1506   65.6520 H   0  0  0
  2  1  1
  2  3  2
  2  8  1
  3  4  1
  3  5  1
  5  6  1
  5  7  2
  7  8  1
  9  7  1
  9 10  1
  9 11  1
  9 28  1
 11 12  1
 11 13  1
 11 14  1
 14 15  1
 14 27  2
 15 16  1
 15 17  2
 17 18  1
 17 19  1
 19 20  2
 19 26  1
 20 21  1
 20 22  1
 22 23  1
 22 24  2
 24 25  1
 24 26  1
 27 28  1
 28 29  1
 29 30  2
 29 31  1
 31 32  1
 31 33  1
 31 34  1
 34 35  1
 34 48  1
 35 36  2
 35 44  1
 36 37  1
 36 38  1
 38 39  1
 38 40  2
 40 41  1
 40 42  1
 42 43  1
 42 44  2
 44 45  1
 45 46  1
 45 47  1
 45 48  1
 48 49  1
 48 50  1
M  ZZC   1 h1
M  ZZC   2 c23
M  ZZC   3 c22
M  ZZC   4 h2
M  ZZC   5 c21
M  ZZC   6 h3
M  ZZC   7 c20
M  ZZC   8 o3
M  ZZC   9 c11
M  ZZC  10 h21
M  ZZC  11 c12
M  ZZC  12 h10
M  ZZC  13 h9
M  ZZC  14 c13
M  ZZC  15 c14
M  ZZC  16 h8
M  ZZC  17 c15
M  ZZC  18 h7
M  ZZC  19 c16
M  ZZC  20 c17
M  ZZC  21 h6
M  ZZC  22 c18
M  ZZC  23 h5
M  ZZC  24 c19
M  ZZC  25 h4
M  ZZC  26 o2
M  ZZC  27 n3
M  ZZC  28 n2
M  ZZC  29 c10
M  ZZC  30 o1
M  ZZC  31 c9
M  ZZC  32 h11
M  ZZC  33 h12
M  ZZC  34 n1
M  ZZC  35 c4
M  ZZC  36 c3
M  ZZC  37 h18
M  ZZC  38 c2
M  ZZC  39 h19
M  ZZC  40 c1
M  ZZC  41 h20
M  ZZC  42 c6
M  ZZC  43 h17
M  ZZC  44 c5
M  ZZC  45 c7
M  ZZC  46 h15
M  ZZC  47 h16
M  ZZC  48 c8
M  ZZC  49 h13
M  ZZC  50 h14
M  ZZM   1 5
M  ZZI   1 1
M  ZZM   2 63
M  ZZI   2 104
M  ZZM   3 64
M  ZZI   3 105
M  ZZM   4 5
M  ZZI   4 1
M  ZZM   5 64
M  ZZI   5 105
M  ZZM   6 5
M  ZZI   6 1
M  ZZM   7 63
M  ZZI   7 104
M  ZZM   8 59
M  ZZI   8 56
M  ZZM   9 1
M  ZZI   9 113
M  ZZM  10 5
M  ZZI  10 1
M  ZZM  11 1
M  ZZI  11 112
M  ZZM  12 5
M  ZZI  12 1
M  ZZM  13 5
M  ZZI  13 1
M  ZZM  14 3
M  ZZI  14 121
M  ZZM  15 2
M  ZZI  15 120
M  ZZM  16 5
M  ZZI  16 1
M  ZZM  17 2
M  ZZI  17 120
M  ZZM  18 5
M  ZZI  18 1
M  ZZM  19 63
M  ZZI  19 104
M  ZZM  20 64
M  ZZI  20 105
M  ZZM  21 5
M  ZZI  21 1
M  ZZM  22 64
M  ZZI  22 105
M  ZZM  23 5
M  ZZI  23 1
M  ZZM  24 63
M  ZZI  24 104
M  ZZM  25 5
M  ZZI  25 1
M  ZZM  26 59
M  ZZI  26 56
M  ZZM  27 9
M  ZZI  27 220
M  ZZM  28 10
M  ZZI  28 192
M  ZZM  29 3
M  ZZI  29 121
M  ZZM  30 7
M  ZZI  30 81
M  ZZM  31 1
M  ZZI  31 112
M  ZZM  32 5
M  ZZI  32 1
M  ZZM  33 5
M  ZZI  33 1
M  ZZM  34 40
M  ZZI  34 193
M  ZZM  35 37
M  ZZI  35 124
M  ZZM  36 37
M  ZZI  36 125
M  ZZM  37 5
M  ZZI  37 1
M  ZZM  38 37
M  ZZI  38 125
M  ZZM  39 5
M  ZZI  39 1
M  ZZM  40 37
M  ZZI  40 125
M  ZZM  41 5
M  ZZI  41 1
M  ZZM  42 37
M  ZZI  42 125
M  ZZM  43 5
M  ZZI  43 1
M  ZZM  44 37
M  ZZI  44 124
M  ZZM  45 1
M  ZZI  45 112
M  ZZM  46 5
M  ZZI  46 1
M  ZZM  47 5
M  ZZI  47 1
M  ZZM  48 1
M  ZZI  48 112
M  ZZM  49 5
M  ZZI  49 1
M  ZZM  50 5
M  ZZI  50 1
M  END
> <NAME>
Z195566276

> <Score>
-25.231539

> <Natom>
50

> <Nflex>
4

> <Hbond>
-1.571085

> <Hphob>
-8.011499

> <VwInt>
-30.430021

> <Eintl>
4.818357

> <Dsolv>
10.781691

> <SolEl>
6.143581

> <mfScore>
-88.560303

> <RecConf>
1

> <molLogP>
3.520857

$$$$
Z16897614
  MOLSOFT 11211612053D

 50 52  0  0  1  0  0  0  0  0999 V2000
  -30.5562   10.8574   68.8012 H   0  0  0
  -30.1872   10.0105   69.1125 O   0  0  0
  -31.2787    9.1159   69.2714 C   0  0  2
  -30.8481    8.1219   69.4197 H   0  0  0
  -32.1120    9.1233   68.0129 C   0  0  0
  -31.5497    8.6631   66.8291 C   0  0  0
  -30.5154    8.3317   66.8134 H   0  0  0
  -32.2759    8.6163   65.6592 C   0  0  0
  -31.8111    8.2617   64.7438 H   0  0  0
  -33.5996    8.9918   65.6585 C   0  0  0
  -34.1515    8.9305   64.7271 H   0  0  0
  -34.1830    9.4281   66.8410 C   0  0  0
  -33.4330    9.5675   68.0015 C   0  0  0
  -34.0803   10.1376   69.2340 C   0  0  0
  -34.7271    9.3753   69.6823 H   0  0  0
  -34.7111   10.9901   68.9608 H   0  0  0
  -33.0522   10.6077   70.2488 C   0  0  0
  -33.5582   10.8976   71.1751 H   0  0  0
  -32.5341   11.5002   69.8792 H   0  0  0
  -32.0536    9.4988   70.5284 C   0  0  0
  -32.5937    8.6259   70.9093 H   0  0  0
  -31.3621    9.8192   71.3148 H   0  0  0
  -35.5420    9.7329   66.9591 O   0  0  0
  -36.3872    9.0211   66.0379 C   0  0  0
  -37.4214    9.2461   66.3106 H   0  0  0
  -36.2461    9.4152   65.0273 H   0  0  0
  -36.2323    7.5089   66.0391 C   0  0  0
  -36.3403    6.8899   64.9921 O   0  0  0
  -36.0186    6.9564   67.2932 N   0  0  0
  -36.0704    7.5880   68.0811 H   0  0  0
  -35.6903    5.5955   67.5505 C   0  0  0
  -35.6514    5.1116   68.8683 C   0  0  0
  -36.0461    5.9635   70.0634 C   0  0  0
  -36.5195    6.8714   69.7017 H   0  0  0
  -34.8239    6.3849   70.8724 C   0  0  0
  -35.1073    7.0600   71.6857 H   0  0  0
  -34.3104    5.5255   71.3151 H   0  0  0
  -34.1065    6.9125   70.2384 H   0  0  0
  -37.0889    5.2928   70.9578 C   0  0  0
  -36.7118    4.3849   71.4377 H   0  0  0
  -37.4112    5.9727   71.7526 H   0  0  0
  -37.9776    5.0224   70.3814 H   0  0  0
  -35.2397    3.7956   69.0725 C   0  0  0
  -35.1735    3.3899   70.0768 H   0  0  0
  -34.9086    2.9681   68.0227 C   0  0  0
  -34.5982    1.9448   68.2093 H   0  0  0
  -34.9793    3.4383   66.7345 C   0  0  0
  -34.7208    2.7893   65.9037 H   0  0  0
  -35.3639    4.7401   66.5039 C   0  0  0
  -35.3728    5.0782   65.4762 H   0  0  0
  2  1  1
  3  2  1
  3  4  1
  3  5  1
  3 20  1
  5  6  2
  5 13  1
  6  7  1
  6  8  1
  8  9  1
  8 10  2
 10 11  1
 10 12  1
 12 13  2
 12 23  1
 13 14  1
 14 15  1
 14 16  1
 14 17  1
 17 18  1
 17 19  1
 17 20  1
 20 21  1
 20 22  1
 23 24  1
 24 25  1
 24 26  1
 24 27  1
 27 28  2
 27 29  1
 29 30  1
 29 31  1
 31 32  2
 31 49  1
 32 33  1
 32 43  1
 33 34  1
 33 35  1
 33 39  1
 35 36  1
 35 37  1
 35 38  1
 39 40  1
 39 41  1
 39 42  1
 43 44  1
 43 45  2
 45 46  1
 45 47  1
 47 48  1
 47 49  2
 49 50  1
M  ZZC   1 h1
M  ZZC   2 o3
M  ZZC   3 c21
M  ZZC   4 h25
M  ZZC   5 c16
M  ZZC   6 c15
M  ZZC   7 h8
M  ZZC   8 c14
M  ZZC   9 h9
M  ZZC  10 c13
M  ZZC  11 h10
M  ZZC  12 c12
M  ZZC  13 c17
M  ZZC  14 c18
M  ZZC  15 h6
M  ZZC  16 h7
M  ZZC  17 c19
M  ZZC  18 h4
M  ZZC  19 h5
M  ZZC  20 c20
M  ZZC  21 h2
M  ZZC  22 h3
M  ZZC  23 o2
M  ZZC  24 c11
M  ZZC  25 h11
M  ZZC  26 h12
M  ZZC  27 c10
M  ZZC  28 o1
M  ZZC  29 n1
M  ZZC  30 h13
M  ZZC  31 c9
M  ZZC  32 c4
M  ZZC  33 c2
M  ZZC  34 h21
M  ZZC  35 c3
M  ZZC  36 h18
M  ZZC  37 h19
M  ZZC  38 h20
M  ZZC  39 c1
M  ZZC  40 h22
M  ZZC  41 h23
M  ZZC  42 h24
M  ZZC  43 c5
M  ZZC  44 h17
M  ZZC  45 c6
M  ZZC  46 h16
M  ZZC  47 c7
M  ZZC  48 h15
M  ZZC  49 c8
M  ZZC  50 h14
M  ZZM   1 21
M  ZZI   1 20
M  ZZM   2 6
M  ZZI   2 60
M  ZZM   3 1
M  ZZI   3 113
M  ZZM   4 5
M  ZZI   4 1
M  ZZM   5 37
M  ZZI   5 124
M  ZZM   6 37
M  ZZI   6 125
M  ZZM   7 5
M  ZZI   7 1
M  ZZM   8 37
M  ZZI   8 125
M  ZZM   9 5
M  ZZI   9 1
M  ZZM  10 37
M  ZZI  10 125
M  ZZM  11 5
M  ZZI  11 1
M  ZZM  12 37
M  ZZI  12 124
M  ZZM  13 37
M  ZZI  13 124
M  ZZM  14 1
M  ZZI  14 112
M  ZZM  15 5
M  ZZI  15 1
M  ZZM  16 5
M  ZZI  16 1
M  ZZM  17 1
M  ZZI  17 112
M  ZZM  18 5
M  ZZI  18 1
M  ZZM  19 5
M  ZZI  19 1
M  ZZM  20 1
M  ZZI  20 112
M  ZZM  21 5
M  ZZI  21 1
M  ZZM  22 5
M  ZZI  22 1
M  ZZM  23 6
M  ZZI  23 59
M  ZZM  24 1
M  ZZI  24 112
M  ZZM  25 5
M  ZZI  25 1
M  ZZM  26 5
M  ZZI  26 1
M  ZZM  27 3
M  ZZI  27 121
M  ZZM  28 7
M  ZZI  28 81
M  ZZM  29 10
M  ZZI  29 191
M  ZZM  30 28
M  ZZI  30 11
M  ZZM  31 37
M  ZZI  31 124
M  ZZM  32 37
M  ZZI  32 124
M  ZZM  33 1
M  ZZI  33 113
M  ZZM  34 5
M  ZZI  34 1
M  ZZM  35 1
M  ZZI  35 111
M  ZZM  36 5
M  ZZI  36 1
M  ZZM  37 5
M  ZZI  37 1
M  ZZM  38 5
M  ZZI  38 1
M  ZZM  39 1
M  ZZI  39 111
M  ZZM  40 5
M  ZZI  40 1
M  ZZM  41 5
M  ZZI  41 1
M  ZZM  42 5
M  ZZI  42 1
M  ZZM  43 37
M  ZZI  43 125
M  ZZM  44 5
M  ZZI  44 1
M  ZZM  45 37
M  ZZI  45 125
M  ZZM  46 5
M  ZZI  46 1
M  ZZM  47 37
M  ZZI  47 125
M  ZZM  48 5
M  ZZI  48 1
M  ZZM  49 37
M  ZZI  49 125
M  ZZM  50 5
M  ZZI  50 1
M  END
> <NAME>
Z16897614

> <Score>
-25.073774

> <Natom>
50

> <Nflex>
4

> <Hbond>
-3.871635

> <Hphob>
-7.789399

> <VwInt>
-27.100275

> <Eintl>
7.663236

> <Dsolv>
13.354237

> <SolEl>
7.007509

> <mfScore>
-101.467751

> <RecConf>
1

> <molLogP>
3.865216

$$$$
Z872500870
  MOLSOFT 11211612053D

 50 52  0  0  0  0  0  0  0  0999 V2000
  -36.0697    5.6711   69.7551 F   0  0  0
  -35.6156    4.8205   68.8201 C   0  0  0
  -34.9496    3.6841   69.2288 C   0  0  0
  -34.8039    3.4954   70.2868 H   0  0  0
  -34.4758    2.7926   68.2888 C   0  0  0
  -33.9509    1.8943   68.5993 H   0  0  0
  -34.6749    3.0488   66.9479 C   0  0  0
  -34.3055    2.3498   66.2045 H   0  0  0
  -35.3452    4.1867   66.5462 C   0  0  0
  -35.4941    4.3655   65.4871 H   0  0  0
  -35.8296    5.0928   67.4791 C   0  0  0
  -36.5707    6.3296   67.0468 C   0  0  0
  -37.4041    6.0725   66.3870 H   0  0  0
  -36.9996    6.8435   67.9108 H   0  0  0
  -35.6774    7.2397   66.3987 O   0  0  0
  -35.8020    7.0936   65.0030 N   0  0  0
  -34.8008    7.6674   64.4124 C   0  0  0
  -34.6285    7.5809   63.0576 N   0  0  0
  -33.8911    8.0611   62.5474 H   0  0  0
  -35.2955    7.0599   62.5017 H   0  0  0
  -33.7816    8.4235   65.1757 C   0  0  0
  -32.4559    8.0707   65.0035 C   0  0  0
  -32.1715    7.2668   64.3314 H   0  0  0
  -31.4924    8.7353   65.7238 C   0  0  0
  -30.4481    8.4574   65.6171 H   0  0  0
  -31.8549    9.7496   66.5841 C   0  0  0
  -31.0765   10.2441   67.1465 H   0  0  0
  -33.1779   10.1376   66.7471 C   0  0  0
  -34.1504    9.4653   66.0188 C   0  0  0
  -35.1971    9.7440   66.1080 H   0  0  0
  -33.5404   11.2691   67.6777 C   0  0  0
  -33.2243   12.2153   67.2248 H   0  0  0
  -34.6232   11.3152   67.8404 H   0  0  0
  -32.8913   11.1843   69.0401 N   0  3  0
  -31.8770   11.0985   68.8855 H   0  0  0
  -33.3647    9.9735   69.8116 C   0  0  0
  -34.4406   10.0847   69.9873 H   0  0  0
  -33.1940    9.0828   69.2000 H   0  0  0
  -32.5897    9.8649   71.1136 C   0  0  0
  -32.9575    9.0103   71.6899 H   0  0  0
  -31.5327    9.6717   70.8978 H   0  0  0
  -32.7180   11.1334   71.9376 C   0  0  0
  -33.7553   11.2505   72.2647 H   0  0  0
  -32.1072   11.0536   72.8421 H   0  0  0
  -32.2994   12.3549   71.1381 C   0  0  0
  -32.4732   13.2509   71.7406 H   0  0  0
  -31.2227   12.3106   70.9403 H   0  0  0
  -33.0561   12.4597   69.8195 C   0  0  0
  -32.6601   13.2740   69.2060 H   0  0  0
  -34.1225   12.6258   69.9743 H   0  0  0
  2  1  1
  2  3  2
  2 11  1
  3  4  1
  3  5  1
  5  6  1
  5  7  2
  7  8  1
  7  9  1
  9 10  1
  9 11  2
 11 12  1
 12 13  1
 12 14  1
 12 15  1
 15 16  1
 16 17  2
 17 18  1
 17 21  1
 18 19  1
 18 20  1
 21 22  1
 21 29  2
 22 23  1
 22 24  2
 24 25  1
 24 26  1
 26 27  1
 26 28  2
 28 29  1
 28 31  1
 29 30  1
 31 32  1
 31 33  1
 31 34  1
 34 35  1
 34 36  1
 34 48  1
 36 37  1
 36 38  1
 36 39  1
 39 40  1
 39 41  1
 39 42  1
 42 43  1
 42 44  1
 42 45  1
 45 46  1
 45 47  1
 45 48  1
 48 49  1
 48 50  1
M  ZZC   1 f1
M  ZZC   2 c4
M  ZZC   3 c3
M  ZZC   4 h23
M  ZZC   5 c2
M  ZZC   6 h24
M  ZZC   7 c1
M  ZZC   8 h25
M  ZZC   9 c6
M  ZZC  10 h22
M  ZZC  11 c5
M  ZZC  12 c7
M  ZZC  13 h20
M  ZZC  14 h21
M  ZZC  15 o1
M  ZZC  16 n1
M  ZZC  17 c8
M  ZZC  18 n3
M  ZZC  19 h2
M  ZZC  20 h3
M  ZZC  21 c9
M  ZZC  22 c10
M  ZZC  23 h19
M  ZZC  24 c11
M  ZZC  25 h18
M  ZZC  26 c12
M  ZZC  27 h17
M  ZZC  28 c13
M  ZZC  29 c14
M  ZZC  30 h16
M  ZZC  31 c15
M  ZZC  32 h14
M  ZZC  33 h15
M  ZZC  34 n2
M  ZZC  35 h1
M  ZZC  36 c16
M  ZZC  37 h12
M  ZZC  38 h13
M  ZZC  39 c17
M  ZZC  40 h10
M  ZZC  41 h11
M  ZZC  42 c18
M  ZZC  43 h8
M  ZZC  44 h9
M  ZZC  45 c19
M  ZZC  46 h6
M  ZZC  47 h7
M  ZZC  48 c20
M  ZZC  49 h4
M  ZZC  50 h5
M  ZZM   1 11
M  ZZI   1 90
M  ZZM   2 37
M  ZZI   2 124
M  ZZM   3 37
M  ZZI   3 125
M  ZZM   4 5
M  ZZI   4 1
M  ZZM   5 37
M  ZZI   5 125
M  ZZM   6 5
M  ZZI   6 1
M  ZZM   7 37
M  ZZI   7 125
M  ZZM   8 5
M  ZZI   8 1
M  ZZM   9 37
M  ZZI   9 125
M  ZZM  10 5
M  ZZI  10 1
M  ZZM  11 37
M  ZZI  11 124
M  ZZM  12 1
M  ZZI  12 112
M  ZZM  13 5
M  ZZI  13 1
M  ZZM  14 5
M  ZZI  14 1
M  ZZM  15 6
M  ZZI  15 65
M  ZZM  16 9
M  ZZI  16 220
M  ZZM  17 3
M  ZZI  17 121
M  ZZM  18 40
M  ZZI  18 224
M  ZZM  19 28
M  ZZI  19 11
M  ZZM  20 28
M  ZZI  20 11
M  ZZM  21 37
M  ZZI  21 124
M  ZZM  22 37
M  ZZI  22 125
M  ZZM  23 5
M  ZZI  23 1
M  ZZM  24 37
M  ZZI  24 125
M  ZZM  25 5
M  ZZI  25 1
M  ZZM  26 37
M  ZZI  26 125
M  ZZM  27 5
M  ZZI  27 1
M  ZZM  28 37
M  ZZI  28 124
M  ZZM  29 37
M  ZZI  29 125
M  ZZM  30 5
M  ZZI  30 1
M  ZZM  31 1
M  ZZI  31 112
M  ZZM  32 5
M  ZZI  32 1
M  ZZM  33 5
M  ZZI  33 1
M  ZZM  34 34
M  ZZI  34 231
M  ZZM  35 36
M  ZZI  35 17
M  ZZM  36 1
M  ZZI  36 112
M  ZZM  37 5
M  ZZI  37 1
M  ZZM  38 5
M  ZZI  38 1
M  ZZM  39 1
M  ZZI  39 112
M  ZZM  40 5
M  ZZI  40 1
M  ZZM  41 5
M  ZZI  41 1
M  ZZM  42 1
M  ZZI  42 112
M  ZZM  43 5
M  ZZI  43 1
M  ZZM  44 5
M  ZZI  44 1
M  ZZM  45 1
M  ZZI  45 112
M  ZZM  46 5
M  ZZI  46 1
M  ZZM  47 5
M  ZZI  47 1
M  ZZM  48 1
M  ZZI  48 112
M  ZZM  49 5
M  ZZI  49 1
M  ZZM  50 5
M  ZZI  50 1
M  CHG  1  34   1
M  END
> <NAME>
Z872500870

> <Score>
-25.071605

> <Natom>
50

> <Nflex>
4

> <Hbond>
-4.907141

> <Hphob>
-6.972899

> <VwInt>
-28.020102

> <Eintl>
7.672859

> <Dsolv>
11.747998

> <SolEl>
13.370312

> <mfScore>
-106.248259

> <RecConf>
1

> <molLogP>
3.479189

$$$$
Z232629838
  MOLSOFT 11211612053D

 51 55  0  0  1  0  0  0  0  0999 V2000
  -32.8443    7.6453   70.2446 H   0  0  0
  -32.1566    8.4398   70.5012 C   0  0  0
  -32.3230    9.7316   70.0239 C   0  0  0
  -31.4447   10.7003   70.4908 C   0  0  0
  -31.5213   11.7366   70.1718 H   0  0  0
  -30.4675   10.3339   71.3924 C   0  0  0
  -29.7822   11.0734   71.7929 H   0  0  0
  -30.3849    9.0133   71.7790 C   0  0  0
  -29.6495    8.6924   72.5060 H   0  0  0
  -31.1824    8.0413   71.3266 N   0  0  0
  -33.3862   10.0994   69.1003 C   0  0  0
  -34.0341    9.3410   68.0651 C   0  0  0
  -34.9403   10.2181   67.5153 C   0  0  0
  -35.6457   10.1101   66.7040 H   0  0  0
  -34.7801   11.3972   68.1747 N   0  0  0
  -35.2617   12.2740   68.0289 H   0  0  0
  -33.8551   11.3524   69.1409 N   0  0  0
  -33.7306    7.9543   67.6085 C   0  0  1
  -33.6254    7.3096   68.4800 H   0  0  0
  -34.8263    7.3804   66.8418 N   0  0  0
  -34.8846    7.4018   65.4605 C   0  0  0
  -35.8574    7.0436   64.8105 O   0  0  0
  -33.6601    7.8223   64.7594 C   0  0  0
  -32.5124    8.0372   65.4936 C   0  0  0
  -32.4895    7.8573   66.8808 N   0  0  0
  -31.6313    8.0974   67.3692 H   0  0  0
  -31.3465    8.3554   64.8272 C   0  0  0
  -30.4289    8.5172   65.3835 H   0  0  0
  -31.3265    8.4425   63.4530 C   0  0  0
  -30.4002    8.6713   62.9358 H   0  0  0
  -32.4736    8.1962   62.7344 C   0  0  0
  -32.4410    8.2121   61.6536 H   0  0  0
  -33.6517    7.8929   63.3784 C   0  0  0
  -34.5431    7.6872   62.7939 H   0  0  0
  -35.9092    6.7352   67.5754 C   0  0  0
  -36.8152    6.7065   66.9610 H   0  0  0
  -36.1436    7.3391   68.4569 H   0  0  0
  -35.5458    5.3266   67.9669 C   0  0  0
  -35.3253    4.3566   66.9989 C   0  0  0
  -35.4448    4.5911   65.9457 H   0  0  0
  -34.9430    3.0813   67.3521 C   0  0  0
  -34.7779    2.3429   66.5733 H   0  0  0
  -34.7718    2.7422   68.6821 C   0  0  0
  -34.3873    1.3452   69.0589 C   0  0  0
  -35.2735    0.7048   69.0483 H   0  0  0
  -33.9457    1.3166   70.0595 H   0  0  0
  -33.6425    0.9494   68.3610 H   0  0  0
  -35.0229    3.6961   69.6535 C   0  0  0
  -34.9189    3.4456   70.7048 H   0  0  0
  -35.4021    4.9754   69.3007 C   0  0  0
  -35.5783    5.7059   70.0845 H   0  0  0
  2  1  1
  2  3  1
  2 10  2
  3  4  2
  3 11  1
  4  5  1
  4  6  1
  6  7  1
  6  8  2
  8  9  1
  8 10  1
 11 12  1
 11 17  2
 12 13  2
 18 12  1
 13 14  1
 13 15  1
 15 16  1
 15 17  1
 18 19  1
 18 20  1
 18 25  1
 20 21  1
 20 35  1
 21 22  2
 21 23  1
 23 24  1
 23 33  2
 24 25  1
 24 27  2
 25 26  1
 27 28  1
 27 29  1
 29 30  1
 29 31  2
 31 32  1
 31 33  1
 33 34  1
 35 36  1
 35 37  1
 35 38  1
 38 39  2
 38 50  1
 39 40  1
 39 41  1
 41 42  1
 41 43  2
 43 44  1
 43 48  1
 44 45  1
 44 46  1
 44 47  1
 48 49  1
 48 50  2
 50 51  1
M  ZZC   1 h1
M  ZZC   2 c24
M  ZZC   3 c20
M  ZZC   4 c21
M  ZZC   5 h4
M  ZZC   6 c22
M  ZZC   7 h3
M  ZZC   8 c23
M  ZZC   9 h2
M  ZZC  10 n5
M  ZZC  11 c19
M  ZZC  12 c17
M  ZZC  13 c18
M  ZZC  14 h5
M  ZZC  15 n3
M  ZZC  16 h20
M  ZZC  17 n4
M  ZZC  18 c9
M  ZZC  19 h21
M  ZZC  20 n1
M  ZZC  21 c16
M  ZZC  22 o1
M  ZZC  23 c15
M  ZZC  24 c10
M  ZZC  25 n2
M  ZZC  26 h10
M  ZZC  27 c11
M  ZZC  28 h9
M  ZZC  29 c12
M  ZZC  30 h8
M  ZZC  31 c13
M  ZZC  32 h7
M  ZZC  33 c14
M  ZZC  34 h6
M  ZZC  35 c8
M  ZZC  36 h11
M  ZZC  37 h12
M  ZZC  38 c5
M  ZZC  39 c4
M  ZZC  40 h15
M  ZZC  41 c3
M  ZZC  42 h16
M  ZZC  43 c2
M  ZZC  44 c1
M  ZZC  45 h17
M  ZZC  46 h18
M  ZZC  47 h19
M  ZZC  48 c7
M  ZZC  49 h13
M  ZZC  50 c6
M  ZZC  51 h14
M  ZZM   1 5
M  ZZI   1 1
M  ZZM   2 37
M  ZZI   2 125
M  ZZM   3 37
M  ZZI   3 124
M  ZZM   4 37
M  ZZI   4 125
M  ZZM   5 5
M  ZZI   5 1
M  ZZM   6 37
M  ZZI   6 125
M  ZZM   7 5
M  ZZI   7 1
M  ZZM   8 37
M  ZZI   8 125
M  ZZM   9 5
M  ZZI   9 1
M  ZZM  10 38
M  ZZI  10 223
M  ZZM  11 64
M  ZZI  11 105
M  ZZM  12 64
M  ZZI  12 105
M  ZZM  13 63
M  ZZI  13 104
M  ZZM  14 5
M  ZZI  14 1
M  ZZM  15 39
M  ZZI  15 215
M  ZZM  16 23
M  ZZI  16 10
M  ZZM  17 65
M  ZZI  17 207
M  ZZM  18 1
M  ZZI  18 113
M  ZZM  19 5
M  ZZI  19 1
M  ZZM  20 10
M  ZZI  20 192
M  ZZM  21 3
M  ZZI  21 121
M  ZZM  22 7
M  ZZI  22 81
M  ZZM  23 37
M  ZZI  23 124
M  ZZM  24 37
M  ZZI  24 124
M  ZZM  25 40
M  ZZI  25 194
M  ZZM  26 28
M  ZZI  26 11
M  ZZM  27 37
M  ZZI  27 125
M  ZZM  28 5
M  ZZI  28 1
M  ZZM  29 37
M  ZZI  29 125
M  ZZM  30 5
M  ZZI  30 1
M  ZZM  31 37
M  ZZI  31 125
M  ZZM  32 5
M  ZZI  32 1
M  ZZM  33 37
M  ZZI  33 125
M  ZZM  34 5
M  ZZI  34 1
M  ZZM  35 1
M  ZZI  35 112
M  ZZM  36 5
M  ZZI  36 1
M  ZZM  37 5
M  ZZI  37 1
M  ZZM  38 37
M  ZZI  38 124
M  ZZM  39 37
M  ZZI  39 125
M  ZZM  40 5
M  ZZI  40 1
M  ZZM  41 37
M  ZZI  41 125
M  ZZM  42 5
M  ZZI  42 1
M  ZZM  43 37
M  ZZI  43 124
M  ZZM  44 1
M  ZZI  44 111
M  ZZM  45 5
M  ZZI  45 1
M  ZZM  46 5
M  ZZI  46 1
M  ZZM  47 5
M  ZZI  47 1
M  ZZM  48 37
M  ZZI  48 125
M  ZZM  49 5
M  ZZI  49 1
M  ZZM  50 37
M  ZZI  50 125
M  ZZM  51 5
M  ZZI  51 1
M  END
> <NAME>
Z232629838

> <Score>
-33.676147

> <Natom>
51

> <Nflex>
3

> <Hbond>
-5.461656

> <Hphob>
-7.113787

> <VwInt>
-31.391292

> <Eintl>
7.949348

> <Dsolv>
14.054187

> <SolEl>
5.998078

> <mfScore>
-109.606191

> <RecConf>
1

> <molLogP>
3.987694

$$$$
Z15434720
  MOLSOFT 11211612053D

 51 55  0  0  0  0  0  0  0  0999 V2000
  -32.5421   12.2886   72.1578 O   0  0  0
  -32.8239   11.2469   71.5793 C   0  0  0
  -33.3482   11.3135   70.1929 C   0  0  0
  -32.7360   12.1989   69.3206 C   0  0  0
  -31.9561   12.8653   69.6711 H   0  0  0
  -33.0441   12.1634   67.9768 C   0  0  0
  -32.5136   12.7964   67.2767 H   0  0  0
  -33.9947   11.2761   67.5292 C   0  0  0
  -34.2147   11.1475   66.2136 F   0  0  0
  -34.6770   10.4717   68.4113 C   0  0  0
  -35.6238    9.6409   67.9517 F   0  0  0
  -34.3465   10.4559   69.7482 C   0  0  0
  -34.8524    9.7593   70.4076 H   0  0  0
  -32.5815    9.8778   72.1844 C   0  0  0
  -33.3240    9.1456   71.8581 H   0  0  0
  -32.6871    9.9641   73.2687 H   0  0  0
  -30.8858    9.3190   71.7840 S   0  0  0
  -31.0549    8.9876   70.0847 C   0  0  0
  -30.2233    9.4061   69.1579 N   0  0  0
  -30.7668    9.0234   67.9499 N   0  0  0
  -31.8890    8.3970   68.2298 C   0  0  0
  -32.1095    8.3136   69.5674 O   0  0  0
  -32.8820    7.8604   67.3235 C   0  0  0
  -32.7387    7.9782   65.8519 C   0  0  0
  -31.5871    8.4478   65.2297 C   0  0  0
  -30.7098    8.7573   65.7850 H   0  0  0
  -31.5224    8.4925   63.8516 C   0  0  0
  -30.6132    8.8243   63.3602 H   0  0  0
  -32.5969    8.0980   63.0869 C   0  0  0
  -32.5273    8.1238   62.0052 H   0  0  0
  -33.7460    7.6415   63.6906 C   0  0  0
  -34.5781    7.3206   63.0712 H   0  0  0
  -33.8028    7.5729   65.0729 C   0  0  0
  -34.9984    7.0013   65.7078 C   0  0  0
  -35.9429    6.6843   64.9964 O   0  0  0
  -34.9352    6.8234   67.0793 N   0  0  0
  -33.9118    7.2884   67.8721 N   0  0  0
  -35.9897    6.0873   67.7615 C   0  0  0
  -36.8661    5.9920   67.1122 H   0  0  0
  -36.2977    6.6742   68.6334 H   0  0  0
  -35.5191    4.7157   68.1741 C   0  0  0
  -35.0837    3.7994   67.2247 C   0  0  0
  -35.1021    4.0479   66.1680 H   0  0  0
  -34.6062    2.5639   67.6072 C   0  0  0
  -34.2570    1.8660   66.8544 H   0  0  0
  -34.5732    2.2148   68.9398 C   0  0  0
  -34.1993    1.2403   69.2369 H   0  0  0
  -35.0219    3.1070   69.8907 C   0  0  0
  -35.0011    2.8330   70.9406 H   0  0  0
  -35.4899    4.3500   69.5125 C   0  0  0
  -35.8266    5.0414   70.2791 H   0  0  0
  2  1  2
  2  3  1
  2 14  1
  3  4  2
  3 12  1
  4  5  1
  4  6  1
  6  7  1
  6  8  2
  8  9  1
  8 10  1
 10 11  1
 10 12  2
 12 13  1
 14 15  1
 14 16  1
 14 17  1
 17 18  1
 18 19  2
 18 22  1
 19 20  1
 20 21  2
 21 22  1
 21 23  1
 23 24  1
 23 37  2
 24 25  2
 24 33  1
 25 26  1
 25 27  1
 27 28  1
 27 29  2
 29 30  1
 29 31  1
 31 32  1
 31 33  2
 33 34  1
 34 35  2
 34 36  1
 36 37  1
 36 38  1
 38 39  1
 38 40  1
 38 41  1
 41 42  2
 41 50  1
 42 43  1
 42 44  1
 44 45  1
 44 46  2
 46 47  1
 46 48  1
 48 49  1
 48 50  2
 50 51  1
M  ZZC   1 o3
M  ZZC   2 c19
M  ZZC   3 c20
M  ZZC   4 c21
M  ZZC   5 h3
M  ZZC   6 c22
M  ZZC   7 h2
M  ZZC   8 c23
M  ZZC   9 f2
M  ZZC  10 c24
M  ZZC  11 f1
M  ZZC  12 c25
M  ZZC  13 h1
M  ZZC  14 c18
M  ZZC  15 h4
M  ZZC  16 h5
M  ZZC  17 s1
M  ZZC  18 c17
M  ZZC  19 n4
M  ZZC  20 n3
M  ZZC  21 c16
M  ZZC  22 o2
M  ZZC  23 c15
M  ZZC  24 c14
M  ZZC  25 c13
M  ZZC  26 h6
M  ZZC  27 c12
M  ZZC  28 h7
M  ZZC  29 c11
M  ZZC  30 h8
M  ZZC  31 c10
M  ZZC  32 h9
M  ZZC  33 c9
M  ZZC  34 c8
M  ZZC  35 o1
M  ZZC  36 n1
M  ZZC  37 n2
M  ZZC  38 c7
M  ZZC  39 h10
M  ZZC  40 h11
M  ZZC  41 c4
M  ZZC  42 c3
M  ZZC  43 h14
M  ZZC  44 c2
M  ZZC  45 h15
M  ZZC  46 c1
M  ZZC  47 h16
M  ZZC  48 c6
M  ZZC  49 h12
M  ZZC  50 c5
M  ZZC  51 h13
M  ZZM   1 7
M  ZZI   1 80
M  ZZM   2 3
M  ZZI   2 122
M  ZZM   3 37
M  ZZI   3 124
M  ZZM   4 37
M  ZZI   4 125
M  ZZM   5 5
M  ZZI   5 1
M  ZZM   6 37
M  ZZI   6 125
M  ZZM   7 5
M  ZZI   7 1
M  ZZM   8 37
M  ZZI   8 124
M  ZZM   9 11
M  ZZI   9 90
M  ZZM  10 37
M  ZZI  10 124
M  ZZM  11 11
M  ZZI  11 90
M  ZZM  12 37
M  ZZI  12 125
M  ZZM  13 5
M  ZZI  13 1
M  ZZM  14 1
M  ZZI  14 112
M  ZZM  15 5
M  ZZI  15 1
M  ZZM  16 5
M  ZZI  16 1
M  ZZM  17 15
M  ZZI  17 240
M  ZZM  18 63
M  ZZI  18 104
M  ZZM  19 66
M  ZZI  19 222
M  ZZM  20 66
M  ZZI  20 222
M  ZZM  21 63
M  ZZI  21 104
M  ZZM  22 59
M  ZZI  22 56
M  ZZM  23 3
M  ZZI  23 121
M  ZZM  24 37
M  ZZI  24 124
M  ZZM  25 37
M  ZZI  25 125
M  ZZM  26 5
M  ZZI  26 1
M  ZZM  27 37
M  ZZI  27 125
M  ZZM  28 5
M  ZZI  28 1
M  ZZM  29 37
M  ZZI  29 125
M  ZZM  30 5
M  ZZI  30 1
M  ZZM  31 37
M  ZZI  31 125
M  ZZM  32 5
M  ZZI  32 1
M  ZZM  33 37
M  ZZI  33 124
M  ZZM  34 3
M  ZZI  34 121
M  ZZM  35 7
M  ZZI  35 81
M  ZZM  36 10
M  ZZI  36 192
M  ZZM  37 9
M  ZZI  37 220
M  ZZM  38 1
M  ZZI  38 112
M  ZZM  39 5
M  ZZI  39 1
M  ZZM  40 5
M  ZZI  40 1
M  ZZM  41 37
M  ZZI  41 124
M  ZZM  42 37
M  ZZI  42 125
M  ZZM  43 5
M  ZZI  43 1
M  ZZM  44 37
M  ZZI  44 125
M  ZZM  45 5
M  ZZI  45 1
M  ZZM  46 37
M  ZZI  46 125
M  ZZM  47 5
M  ZZI  47 1
M  ZZM  48 37
M  ZZI  48 125
M  ZZM  49 5
M  ZZI  49 1
M  ZZM  50 37
M  ZZI  50 125
M  ZZM  51 5
M  ZZI  51 1
M  END
> <NAME>
Z15434720

> <Score>
-31.890896

> <Natom>
51

> <Nflex>
4

> <Hbond>
-3.548386

> <Hphob>
-7.420911

> <VwInt>
-37.370283

> <Eintl>
9.258071

> <Dsolv>
14.312265

> <SolEl>
9.537296

> <mfScore>
-96.374793

> <RecConf>
1

> <molLogP>
4.270444

$$$$
Z15434687
  MOLSOFT 11211612053D

 51 54  0  0  0  0  0  0  0  0999 V2000
  -35.0138    8.0762   70.9348 N   0  0  0
  -34.4653    9.0848   70.7685 C   0  0  0
  -33.7293   10.2878   70.6096 C   0  0  0
  -33.9243   11.0842   69.5382 C   0  0  0
  -33.1269   12.3326   69.2857 C   0  0  0
  -33.5998   13.1970   69.7580 H   0  0  0
  -33.0610   12.5356   68.2122 H   0  0  0
  -32.0955   12.2534   69.6349 H   0  0  0
  -34.8682   10.8176   68.5663 N   0  0  0
  -35.1284   11.5664   67.9245 H   0  0  0
  -35.4460    9.9769   68.6000 H   0  0  0
  -32.6826   10.6030   71.6244 C   0  0  0
  -32.4565   11.7566   71.9667 O   0  0  0
  -31.8973    9.4383   72.1995 C   0  0  0
  -32.4166    8.4859   72.0678 H   0  0  0
  -31.7976    9.5948   73.2762 H   0  0  0
  -30.2398    9.3462   71.4485 S   0  0  0
  -30.6342    9.0260   69.7846 C   0  0  0
  -29.8367    9.3109   68.7836 N   0  0  0
  -30.5334    9.0099   67.6355 N   0  0  0
  -31.6966    8.5313   68.0158 C   0  0  0
  -31.8101    8.4901   69.3693 O   0  0  0
  -32.7829    8.0618   67.1790 C   0  0  0
  -32.6772    8.1171   65.7003 C   0  0  0
  -31.5255    8.5214   65.0345 C   0  0  0
  -30.6266    8.8255   65.5562 H   0  0  0
  -31.4868    8.5115   63.6563 C   0  0  0
  -30.5791    8.8025   63.1365 H   0  0  0
  -32.5856    8.1118   62.9316 C   0  0  0
  -32.5338    8.0853   61.8496 H   0  0  0
  -33.7358    7.7173   63.5755 C   0  0  0
  -34.5878    7.3926   62.9859 H   0  0  0
  -33.7688    7.7146   64.9600 C   0  0  0
  -34.9664    7.2081   65.6408 C   0  0  0
  -35.9223    6.8607   64.9588 O   0  0  0
  -34.8896    7.1118   67.0202 N   0  0  0
  -33.8321    7.5767   67.7742 N   0  0  0
  -35.9252    6.3756   67.7347 C   0  0  0
  -36.8404    6.3354   67.1345 H   0  0  0
  -36.1693    6.9251   68.6479 H   0  0  0
  -35.4778    4.9695   68.0494 C   0  0  0
  -35.2263    4.0588   67.0302 C   0  0  0
  -35.3768    4.3366   65.9918 H   0  0  0
  -34.7671    2.7909   67.3150 C   0  0  0
  -34.5637    2.0995   66.5048 H   0  0  0
  -34.5690    2.4026   68.6223 C   0  0  0
  -34.2089    1.4032   68.8438 H   0  0  0
  -34.8345    3.2889   69.6448 C   0  0  0
  -34.6828    2.9855   70.6756 H   0  0  0
  -35.2828    4.5640   69.3620 C   0  0  0
  -35.4720    5.2496   70.1825 H   0  0  0
  2  1  3
  2  3  1
  3  4  2
  3 12  1
  4  5  1
  4  9  1
  5  6  1
  5  7  1
  5  8  1
  9 10  1
  9 11  1
 12 13  2
 12 14  1
 14 15  1
 14 16  1
 14 17  1
 17 18  1
 18 19  2
 18 22  1
 19 20  1
 20 21  2
 21 22  1
 21 23  1
 23 24  1
 23 37  2
 24 25  2
 24 33  1
 25 26  1
 25 27  1
 27 28  1
 27 29  2
 29 30  1
 29 31  1
 31 32  1
 31 33  2
 33 34  1
 34 35  2
 34 36  1
 36 37  1
 36 38  1
 38 39  1
 38 40  1
 38 41  1
 41 42  2
 41 50  1
 42 43  1
 42 44  1
 44 45  1
 44 46  2
 46 47  1
 46 48  1
 48 49  1
 48 50  2
 50 51  1
M  ZZC   1 n1
M  ZZC   2 c4
M  ZZC   3 c3
M  ZZC   4 c2
M  ZZC   5 c1
M  ZZC   6 h16
M  ZZC   7 h17
M  ZZC   8 h18
M  ZZC   9 n6
M  ZZC  10 h1
M  ZZC  11 h2
M  ZZC  12 c5
M  ZZC  13 o1
M  ZZC  14 c6
M  ZZC  15 h14
M  ZZC  16 h15
M  ZZC  17 s1
M  ZZC  18 c7
M  ZZC  19 n2
M  ZZC  20 n3
M  ZZC  21 c8
M  ZZC  22 o2
M  ZZC  23 c9
M  ZZC  24 c10
M  ZZC  25 c11
M  ZZC  26 h13
M  ZZC  27 c12
M  ZZC  28 h12
M  ZZC  29 c13
M  ZZC  30 h11
M  ZZC  31 c14
M  ZZC  32 h10
M  ZZC  33 c15
M  ZZC  34 c16
M  ZZC  35 o3
M  ZZC  36 n4
M  ZZC  37 n5
M  ZZC  38 c17
M  ZZC  39 h8
M  ZZC  40 h9
M  ZZC  41 c18
M  ZZC  42 c19
M  ZZC  43 h7
M  ZZC  44 c20
M  ZZC  45 h6
M  ZZC  46 c21
M  ZZC  47 h5
M  ZZC  48 c22
M  ZZC  49 h4
M  ZZC  50 c23
M  ZZC  51 h3
M  ZZM   1 42
M  ZZI   1 225
M  ZZM   2 4
M  ZZI   2 130
M  ZZM   3 2
M  ZZI   3 120
M  ZZM   4 2
M  ZZI   4 120
M  ZZM   5 1
M  ZZI   5 111
M  ZZM   6 5
M  ZZI   6 1
M  ZZM   7 5
M  ZZI   7 1
M  ZZM   8 5
M  ZZI   8 1
M  ZZM   9 40
M  ZZI   9 224
M  ZZM  10 28
M  ZZI  10 11
M  ZZM  11 28
M  ZZI  11 11
M  ZZM  12 3
M  ZZI  12 122
M  ZZM  13 7
M  ZZI  13 80
M  ZZM  14 1
M  ZZI  14 112
M  ZZM  15 5
M  ZZI  15 1
M  ZZM  16 5
M  ZZI  16 1
M  ZZM  17 15
M  ZZI  17 240
M  ZZM  18 63
M  ZZI  18 104
M  ZZM  19 66
M  ZZI  19 222
M  ZZM  20 66
M  ZZI  20 222
M  ZZM  21 63
M  ZZI  21 104
M  ZZM  22 59
M  ZZI  22 56
M  ZZM  23 3
M  ZZI  23 121
M  ZZM  24 37
M  ZZI  24 124
M  ZZM  25 37
M  ZZI  25 125
M  ZZM  26 5
M  ZZI  26 1
M  ZZM  27 37
M  ZZI  27 125
M  ZZM  28 5
M  ZZI  28 1
M  ZZM  29 37
M  ZZI  29 125
M  ZZM  30 5
M  ZZI  30 1
M  ZZM  31 37
M  ZZI  31 125
M  ZZM  32 5
M  ZZI  32 1
M  ZZM  33 37
M  ZZI  33 124
M  ZZM  34 3
M  ZZI  34 121
M  ZZM  35 7
M  ZZI  35 81
M  ZZM  36 10
M  ZZI  36 192
M  ZZM  37 9
M  ZZI  37 220
M  ZZM  38 1
M  ZZI  38 112
M  ZZM  39 5
M  ZZI  39 1
M  ZZM  40 5
M  ZZI  40 1
M  ZZM  41 37
M  ZZI  41 124
M  ZZM  42 37
M  ZZI  42 125
M  ZZM  43 5
M  ZZI  43 1
M  ZZM  44 37
M  ZZI  44 125
M  ZZM  45 5
M  ZZI  45 1
M  ZZM  46 37
M  ZZI  46 125
M  ZZM  47 5
M  ZZI  47 1
M  ZZM  48 37
M  ZZI  48 125
M  ZZM  49 5
M  ZZI  49 1
M  ZZM  50 37
M  ZZI  50 125
M  ZZM  51 5
M  ZZI  51 1
M  END
> <NAME>
Z15434687

> <Score>
-30.579633

> <Natom>
51

> <Nflex>
5

> <Hbond>
-5.782055

> <Hphob>
-6.615651

> <VwInt>
-35.227553

> <Eintl>
8.780042

> <Dsolv>
18.212797

> <SolEl>
10.68092

> <mfScore>
-96.227507

> <RecConf>
1

> <molLogP>
2.468294

$$$$
Z249690418
  MOLSOFT 11211612053D

 51 52  0  0  1  0  0  0  0  0999 V2000
  -36.1166    5.9531   72.1874 H   0  0  0
  -35.4841    6.6482   71.6252 C   0  0  0
  -34.4470    6.6291   71.9766 H   0  0  0
  -35.8692    7.6544   71.8019 H   0  0  0
  -35.5532    6.3926   70.2186 O   0  0  0
  -35.1987    5.0897   69.8562 C   0  0  0
  -34.6637    4.1801   70.7607 C   0  0  0
  -34.5152    4.4226   71.8058 H   0  0  0
  -34.2789    2.9274   70.3393 C   0  0  0
  -33.8556    2.2313   71.0574 H   0  0  0
  -34.4173    2.5706   69.0126 C   0  0  0
  -33.9868    1.2238   68.5356 C   0  0  0
  -34.8585    0.6716   68.1778 H   0  0  0
  -33.2558    1.3181   67.7273 H   0  0  0
  -33.5248    0.6629   69.3500 H   0  0  0
  -34.9710    3.4648   68.1189 C   0  0  0
  -35.0827    3.1610   67.0809 H   0  0  0
  -35.3783    4.7281   68.5201 C   0  0  0
  -35.9818    5.6407   67.4778 C   0  0  1
  -36.1776    5.0528   66.5740 H   0  0  0
  -37.3107    6.2451   67.9148 C   0  0  0
  -37.1582    7.0479   68.6300 H   0  0  0
  -37.8411    6.6813   67.0644 H   0  0  0
  -37.9707    5.5172   68.3904 H   0  0  0
  -35.0590    6.6913   67.1082 N   0  0  0
  -34.3336    6.9463   67.7705 H   0  0  0
  -35.1927    7.3747   65.9181 C   0  0  0
  -36.0234    7.0865   65.0654 O   0  0  0
  -34.2337    8.5504   65.7779 C   0  0  1
  -33.3394    8.3554   66.3801 H   0  0  0
  -33.8516    8.5677   64.3725 N   0  0  0
  -34.5690    8.5952   63.6582 H   0  0  0
  -32.5812    8.2721   63.9923 C   0  0  0
  -31.6254    8.1808   64.7410 O   0  0  0
  -32.4889    8.0548   62.6666 N   0  0  0
  -31.6067    7.7310   62.2927 H   0  0  0
  -33.2941    8.0653   62.0554 H   0  0  0
  -34.9162    9.8558   66.2073 C   0  0  0
  -36.0047    9.7385   66.2559 H   0  0  0
  -34.7288   10.6288   65.4559 H   0  0  0
  -34.4166   10.3549   67.5433 C   0  0  0
  -34.7589    9.7176   68.7273 C   0  0  0
  -35.4328    8.8692   68.7193 H   0  0  0
  -34.2522   10.1482   69.9371 C   0  0  0
  -34.5189    9.6282   70.8513 H   0  0  0
  -33.4134   11.2409   69.9903 C   0  0  0
  -33.0176   11.5840   70.9410 H   0  0  0
  -33.0874   11.9016   68.8271 C   0  0  0
  -32.4307   12.7650   68.8622 H   0  0  0
  -33.5831   11.4621   67.6170 C   0  0  0
  -33.3059   12.0025   66.7211 H   0  0  0
  2  1  1
  2  3  1
  2  4  1
  2  5  1
  5  6  1
  6  7  2
  6 18  1
  7  8  1
  7  9  1
  9 10  1
  9 11  2
 11 12  1
 11 16  1
 12 13  1
 12 14  1
 12 15  1
 16 17  1
 16 18  2
 19 18  1
 19 20  1
 19 21  1
 19 25  1
 21 22  1
 21 23  1
 21 24  1
 25 26  1
 25 27  1
 27 28  2
 29 27  1
 29 30  1
 29 31  1
 29 38  1
 31 32  1
 31 33  1
 33 34  2
 33 35  1
 35 36  1
 35 37  1
 38 39  1
 38 40  1
 38 41  1
 41 42  1
 41 50  2
 42 43  1
 42 44  2
 44 45  1
 44 46  1
 46 47  1
 46 48  2
 48 49  1
 48 50  1
 50 51  1
M  ZZC   1 h1
M  ZZC   2 c20
M  ZZC   3 h2
M  ZZC   4 h3
M  ZZC   5 o3
M  ZZC   6 c5
M  ZZC   7 c4
M  ZZC   8 h19
M  ZZC   9 c3
M  ZZC  10 h20
M  ZZC  11 c2
M  ZZC  12 c1
M  ZZC  13 h21
M  ZZC  14 h22
M  ZZC  15 h23
M  ZZC  16 c7
M  ZZC  17 h18
M  ZZC  18 c6
M  ZZC  19 c8
M  ZZC  20 h25
M  ZZC  21 c9
M  ZZC  22 h15
M  ZZC  23 h16
M  ZZC  24 h17
M  ZZC  25 n1
M  ZZC  26 h14
M  ZZC  27 c10
M  ZZC  28 o1
M  ZZC  29 c11
M  ZZC  30 h24
M  ZZC  31 n2
M  ZZC  32 h6
M  ZZC  33 c19
M  ZZC  34 o2
M  ZZC  35 n3
M  ZZC  36 h4
M  ZZC  37 h5
M  ZZC  38 c12
M  ZZC  39 h12
M  ZZC  40 h13
M  ZZC  41 c13
M  ZZC  42 c14
M  ZZC  43 h11
M  ZZC  44 c15
M  ZZC  45 h10
M  ZZC  46 c16
M  ZZC  47 h9
M  ZZC  48 c17
M  ZZC  49 h8
M  ZZC  50 c18
M  ZZC  51 h7
M  ZZM   1 5
M  ZZI   1 1
M  ZZM   2 1
M  ZZI   2 111
M  ZZM   3 5
M  ZZI   3 1
M  ZZM   4 5
M  ZZI   4 1
M  ZZM   5 6
M  ZZI   5 59
M  ZZM   6 37
M  ZZI   6 124
M  ZZM   7 37
M  ZZI   7 125
M  ZZM   8 5
M  ZZI   8 1
M  ZZM   9 37
M  ZZI   9 125
M  ZZM  10 5
M  ZZI  10 1
M  ZZM  11 37
M  ZZI  11 124
M  ZZM  12 1
M  ZZI  12 111
M  ZZM  13 5
M  ZZI  13 1
M  ZZM  14 5
M  ZZI  14 1
M  ZZM  15 5
M  ZZI  15 1
M  ZZM  16 37
M  ZZI  16 125
M  ZZM  17 5
M  ZZI  17 1
M  ZZM  18 37
M  ZZI  18 124
M  ZZM  19 1
M  ZZI  19 113
M  ZZM  20 5
M  ZZI  20 1
M  ZZM  21 1
M  ZZI  21 111
M  ZZM  22 5
M  ZZI  22 1
M  ZZM  23 5
M  ZZI  23 1
M  ZZM  24 5
M  ZZI  24 1
M  ZZM  25 10
M  ZZI  25 211
M  ZZM  26 28
M  ZZI  26 11
M  ZZM  27 3
M  ZZI  27 121
M  ZZM  28 7
M  ZZI  28 81
M  ZZM  29 1
M  ZZI  29 113
M  ZZM  30 5
M  ZZI  30 1
M  ZZM  31 10
M  ZZI  31 211
M  ZZM  32 28
M  ZZI  32 11
M  ZZM  33 3
M  ZZI  33 121
M  ZZM  34 7
M  ZZI  34 81
M  ZZM  35 10
M  ZZI  35 212
M  ZZM  36 28
M  ZZI  36 11
M  ZZM  37 28
M  ZZI  37 11
M  ZZM  38 1
M  ZZI  38 112
M  ZZM  39 5
M  ZZI  39 1
M  ZZM  40 5
M  ZZI  40 1
M  ZZM  41 37
M  ZZI  41 124
M  ZZM  42 37
M  ZZI  42 125
M  ZZM  43 5
M  ZZI  43 1
M  ZZM  44 37
M  ZZI  44 125
M  ZZM  45 5
M  ZZI  45 1
M  ZZM  46 37
M  ZZI  46 125
M  ZZM  47 5
M  ZZI  47 1
M  ZZM  48 37
M  ZZI  48 125
M  ZZM  49 5
M  ZZI  49 1
M  ZZM  50 37
M  ZZI  50 125
M  ZZM  51 5
M  ZZI  51 1
M  END
> <NAME>
Z249690418

> <Score>
-29.541318

> <Natom>
51

> <Nflex>
7

> <Hbond>
-5.562572

> <Hphob>
-6.850984

> <VwInt>
-28.840677

> <Eintl>
6.895186

> <Dsolv>
13.556263

> <SolEl>
5.447922

> <mfScore>
-78.804058

> <RecConf>
1

> <molLogP>
2.675789

$$$$
Z44190993
  MOLSOFT 11211612053D

 51 53  0  0  1  0  0  0  0  0999 V2000
  -33.5773    1.2429   68.4476 Cl  0  0  0
  -34.4429    2.7140   68.1954 C   0  0  0
  -34.7450    3.1240   66.9130 C   0  0  0
  -34.4280    2.5369   66.0574 H   0  0  0
  -35.4755    4.2785   66.7194 C   0  0  0
  -35.7266    4.5776   65.7065 H   0  0  0
  -35.9113    5.0305   67.8031 C   0  0  0
  -35.5702    4.6213   69.0846 C   0  0  0
  -35.8903    5.1957   69.9491 H   0  0  0
  -34.8425    3.4653   69.2808 C   0  0  0
  -34.6003    3.1453   70.2893 H   0  0  0
  -36.7781    6.2442   67.6035 C   0  0  0
  -37.5558    6.0337   66.8640 H   0  0  0
  -37.2899    6.4971   68.5367 H   0  0  0
  -36.0388    7.4145   67.1886 N   0  0  0
  -35.5963    7.9742   67.9068 H   0  0  0
  -35.9106    7.7445   65.8547 C   0  0  0
  -36.3246    7.0295   64.9550 O   0  0  0
  -35.2461    9.0900   65.5880 C   0  0  0
  -35.8234    9.5846   64.8019 H   0  0  0
  -35.3659    9.7325   66.4651 H   0  0  0
  -33.8205    8.9954   65.1695 N   0  0  0
  -33.6528    8.1886   63.9413 C   0  0  0
  -33.8168    7.1225   64.1309 H   0  0  0
  -34.3997    8.4985   63.2045 H   0  0  0
  -32.2836    8.3777   63.3067 C   0  0  0
  -32.2769    7.9427   62.3043 H   0  0  0
  -31.4948    7.8849   63.8819 H   0  0  0
  -32.0268    9.4357   63.2098 H   0  0  0
  -32.9062    8.5562   66.2380 C   0  0  0
  -31.8667    8.6802   65.9201 H   0  0  0
  -33.0623    7.5056   66.5019 H   0  0  0
  -33.0512    9.3839   67.4142 N   0  0  0
  -32.8652   10.7482   67.4442 C   0  0  0
  -32.7476   11.5153   66.4997 O   0  0  0
  -32.7678   11.1070   68.8958 C   0  0  1
  -31.7110   10.9752   69.1663 H   0  0  0
  -33.2480   12.4608   69.3742 C   0  0  0
  -34.2278   12.7096   68.9551 H   0  0  0
  -32.5558   13.2380   69.0432 H   0  0  0
  -33.3107   12.4144   70.8746 C   0  0  0
  -33.3791   13.3588   71.4006 H   0  0  0
  -33.2711   11.2862   71.6029 C   0  0  0
  -33.2847   11.3586   72.6852 H   0  0  0
  -33.2568    9.9116   71.0098 C   0  0  0
  -33.9917    9.2756   71.5132 H   0  0  0
  -32.2758    9.4465   71.1546 H   0  0  0
  -33.6068   10.0348   69.5393 C   0  0  1
  -34.6774   10.2569   69.4246 H   0  0  0
  -33.3282    8.8686   68.6553 C   0  0  0
  -33.4364    7.6975   68.9812 O   0  0  0
  2  1  1
  2  3  1
  2 10  2
  3  4  1
  3  5  2
  5  6  1
  5  7  1
  7  8  2
  7 12  1
  8  9  1
  8 10  1
 10 11  1
 12 13  1
 12 14  1
 12 15  1
 15 16  1
 15 17  1
 17 18  2
 17 19  1
 19 20  1
 19 21  1
 19 22  1
 22 23  1
 22 30  1
 23 24  1
 23 25  1
 23 26  1
 26 27  1
 26 28  1
 26 29  1
 30 31  1
 30 32  1
 30 33  1
 33 34  1
 33 50  1
 34 35  2
 36 34  1
 36 37  1
 36 38  1
 36 48  1
 38 39  1
 38 40  1
 38 41  1
 41 42  1
 41 43  2
 43 44  1
 43 45  1
 45 46  1
 45 47  1
 48 45  1
 48 49  1
 48 50  1
 50 51  2
M  ZZC   1 &Cl1
M  ZZC   2 c9
M  ZZC   3 c10
M  ZZC   4 h10
M  ZZC   5 c11
M  ZZC   6 h9
M  ZZC   7 c6
M  ZZC   8 c7
M  ZZC   9 h12
M  ZZC  10 c8
M  ZZC  11 h11
M  ZZC  12 c5
M  ZZC  13 h13
M  ZZC  14 h14
M  ZZC  15 n2
M  ZZC  16 h15
M  ZZC  17 c4
M  ZZC  18 o1
M  ZZC  19 c3
M  ZZC  20 h16
M  ZZC  21 h17
M  ZZC  22 n1
M  ZZC  23 c2
M  ZZC  24 h18
M  ZZC  25 h19
M  ZZC  26 c1
M  ZZC  27 h20
M  ZZC  28 h21
M  ZZC  29 h22
M  ZZC  30 c12
M  ZZC  31 h7
M  ZZC  32 h8
M  ZZC  33 n3
M  ZZC  34 c13
M  ZZC  35 o2
M  ZZC  36 c14
M  ZZC  37 h24
M  ZZC  38 c15
M  ZZC  39 h5
M  ZZC  40 h6
M  ZZC  41 c16
M  ZZC  42 h4
M  ZZC  43 c17
M  ZZC  44 h3
M  ZZC  45 c18
M  ZZC  46 h1
M  ZZC  47 h2
M  ZZC  48 c19
M  ZZC  49 h23
M  ZZC  50 c20
M  ZZC  51 o3
M  ZZM   1 12
M  ZZI   1 92
M  ZZM   2 37
M  ZZI   2 124
M  ZZM   3 37
M  ZZI   3 125
M  ZZM   4 5
M  ZZI   4 1
M  ZZM   5 37
M  ZZI   5 125
M  ZZM   6 5
M  ZZI   6 1
M  ZZM   7 37
M  ZZI   7 124
M  ZZM   8 37
M  ZZI   8 125
M  ZZM   9 5
M  ZZI   9 1
M  ZZM  10 37
M  ZZI  10 125
M  ZZM  11 5
M  ZZI  11 1
M  ZZM  12 1
M  ZZI  12 112
M  ZZM  13 5
M  ZZI  13 1
M  ZZM  14 5
M  ZZI  14 1
M  ZZM  15 10
M  ZZI  15 211
M  ZZM  16 28
M  ZZI  16 11
M  ZZM  17 3
M  ZZI  17 121
M  ZZM  18 7
M  ZZI  18 81
M  ZZM  19 1
M  ZZI  19 112
M  ZZM  20 5
M  ZZI  20 1
M  ZZM  21 5
M  ZZI  21 1
M  ZZM  22 8
M  ZZI  22 216
M  ZZM  23 1
M  ZZI  23 112
M  ZZM  24 5
M  ZZI  24 1
M  ZZM  25 5
M  ZZI  25 1
M  ZZM  26 1
M  ZZI  26 111
M  ZZM  27 5
M  ZZI  27 1
M  ZZM  28 5
M  ZZI  28 1
M  ZZM  29 5
M  ZZI  29 1
M  ZZM  30 1
M  ZZI  30 112
M  ZZM  31 5
M  ZZI  31 1
M  ZZM  32 5
M  ZZI  32 1
M  ZZM  33 10
M  ZZI  33 192
M  ZZM  34 3
M  ZZI  34 121
M  ZZM  35 7
M  ZZI  35 81
M  ZZM  36 1
M  ZZI  36 113
M  ZZM  37 5
M  ZZI  37 1
M  ZZM  38 1
M  ZZI  38 112
M  ZZM  39 5
M  ZZI  39 1
M  ZZM  40 5
M  ZZI  40 1
M  ZZM  41 2
M  ZZI  41 120
M  ZZM  42 5
M  ZZI  42 1
M  ZZM  43 2
M  ZZI  43 120
M  ZZM  44 5
M  ZZI  44 1
M  ZZM  45 1
M  ZZI  45 112
M  ZZM  46 5
M  ZZI  46 1
M  ZZM  47 5
M  ZZI  47 1
M  ZZM  48 1
M  ZZI  48 113
M  ZZM  49 5
M  ZZI  49 1
M  ZZM  50 3
M  ZZI  50 121
M  ZZM  51 7
M  ZZI  51 81
M  END
> <NAME>
Z44190993

> <Score>
-28.674623

> <Natom>
51

> <Nflex>
7

> <Hbond>
-3.029873

> <Hphob>
-6.898861

> <VwInt>
-32.201967

> <Eintl>
6.532978

> <Dsolv>
12.176333

> <SolEl>
3.761987

> <mfScore>
-81.757082

> <RecConf>
1

> <molLogP>
2.313191

$$$$
Z24701645
  MOLSOFT 11211612053D

 51 53  0  0  1  0  0  0  0  0999 V2000
  -35.0429    4.3715   72.5363 O   0  0  0
  -35.9243    3.9149   71.8192 C   0  0  0
  -37.2729    3.4874   72.3377 C   0  0  0
  -37.1552    2.6143   72.9856 H   0  0  0
  -37.9383    3.2261   71.5119 H   0  0  0
  -37.7283    4.3104   72.8958 H   0  0  0
  -35.6660    3.7416   70.3705 C   0  0  0
  -34.9703    2.6082   69.9671 C   0  0  0
  -34.5132    1.5546   70.9365 C   0  0  0
  -33.8427    1.9783   71.6903 H   0  0  0
  -33.9634    0.7652   70.4146 H   0  0  0
  -35.3660    1.1178   71.4653 H   0  0  0
  -34.7029    2.4612   68.6229 C   0  0  0
  -34.1717    1.5763   68.2829 H   0  0  0
  -35.0849    3.4187   67.6995 C   0  0  0
  -34.7320    3.1693   66.2635 C   0  0  0
  -34.0890    3.9668   65.8920 H   0  0  0
  -35.6346    3.1073   65.6519 H   0  0  0
  -34.1943    2.2250   66.1434 H   0  0  0
  -35.7590    4.5793   68.1036 C   0  0  0
  -36.0855    4.7217   69.4650 C   0  0  0
  -36.8008    5.9468   69.9732 C   0  0  0
  -36.0862    6.7555   70.1540 H   0  0  0
  -37.3343    5.7563   70.9059 H   0  0  0
  -37.5707    6.2776   69.2720 H   0  0  0
  -36.0936    5.6538   67.0829 C   0  0  0
  -37.1383    5.9614   67.1781 H   0  0  0
  -36.0074    5.2718   66.0654 H   0  0  0
  -35.0435    7.1233   67.2903 S   0  0  0
  -34.5284    7.4792   65.6412 C   0  0  0
  -35.0886    7.1005   64.5359 N   0  0  0
  -34.2773    7.6360   63.5729 N   0  0  0
  -34.4481    7.5213   62.5787 H   0  0  0
  -33.2474    8.3391   64.1226 C   0  0  0
  -32.3570    8.9102   63.5141 O   0  0  0
  -33.4163    8.2671   65.4689 N   0  0  0
  -32.5811    8.9084   66.4751 C   0  0  0
  -31.6562    9.2485   65.9979 H   0  0  0
  -32.3318    8.1429   67.2163 H   0  0  0
  -33.3070   10.0798   67.1493 C   0  0  1
  -34.3916    9.9238   67.1448 H   0  0  0
  -32.8484   10.3125   68.5718 C   0  0  0
  -31.7543   10.2933   68.6394 H   0  0  0
  -33.2574    9.5858   69.2811 H   0  0  0
  -33.3466   11.7042   68.8064 C   0  0  0
  -32.8559   12.2202   69.6371 H   0  0  0
  -34.4217   11.6793   69.0062 H   0  0  0
  -33.0965   12.3589   67.4703 C   0  0  0
  -32.1283   12.8606   67.4593 H   0  0  0
  -33.8715   13.0873   67.2302 H   0  0  0
  -33.0769   11.3248   66.4739 O   0  0  0
  2  1  2
  2  3  1
  2  7  1
  3  4  1
  3  5  1
  3  6  1
  7  8  1
  7 21  2
  8  9  1
  8 13  2
  9 10  1
  9 11  1
  9 12  1
 13 14  1
 13 15  1
 15 16  1
 15 20  2
 16 17  1
 16 18  1
 16 19  1
 20 21  1
 20 26  1
 21 22  1
 22 23  1
 22 24  1
 22 25  1
 26 27  1
 26 28  1
 26 29  1
 29 30  1
 30 31  2
 30 36  1
 31 32  1
 32 33  1
 32 34  1
 34 35  2
 34 36  1
 36 37  1
 37 38  1
 37 39  1
 40 37  1
 40 41  1
 40 42  1
 40 51  1
 42 43  1
 42 44  1
 42 45  1
 45 46  1
 45 47  1
 45 48  1
 48 49  1
 48 50  1
 48 51  1
M  ZZC   1 o3
M  ZZC   2 c17
M  ZZC   3 c18
M  ZZC   4 h4
M  ZZC   5 h5
M  ZZC   6 h6
M  ZZC   7 c5
M  ZZC   8 c4
M  ZZC   9 c19
M  ZZC  10 h1
M  ZZC  11 h2
M  ZZC  12 h3
M  ZZC  13 c3
M  ZZC  14 h20
M  ZZC  15 c2
M  ZZC  16 c1
M  ZZC  17 h21
M  ZZC  18 h22
M  ZZC  19 h23
M  ZZC  20 c7
M  ZZC  21 c6
M  ZZC  22 c16
M  ZZC  23 h7
M  ZZC  24 h8
M  ZZC  25 h9
M  ZZC  26 c8
M  ZZC  27 h18
M  ZZC  28 h19
M  ZZC  29 s1
M  ZZC  30 c9
M  ZZC  31 n1
M  ZZC  32 n2
M  ZZC  33 h25
M  ZZC  34 c10
M  ZZC  35 o1
M  ZZC  36 n3
M  ZZC  37 c11
M  ZZC  38 h16
M  ZZC  39 h17
M  ZZC  40 c12
M  ZZC  41 h24
M  ZZC  42 c13
M  ZZC  43 h14
M  ZZC  44 h15
M  ZZC  45 c14
M  ZZC  46 h12
M  ZZC  47 h13
M  ZZC  48 c15
M  ZZC  49 h10
M  ZZC  50 h11
M  ZZC  51 o2
M  ZZM   1 7
M  ZZI   1 80
M  ZZM   2 3
M  ZZI   2 122
M  ZZM   3 1
M  ZZI   3 111
M  ZZM   4 5
M  ZZI   4 1
M  ZZM   5 5
M  ZZI   5 1
M  ZZM   6 5
M  ZZI   6 1
M  ZZM   7 37
M  ZZI   7 124
M  ZZM   8 37
M  ZZI   8 124
M  ZZM   9 1
M  ZZI   9 111
M  ZZM  10 5
M  ZZI  10 1
M  ZZM  11 5
M  ZZI  11 1
M  ZZM  12 5
M  ZZI  12 1
M  ZZM  13 37
M  ZZI  13 125
M  ZZM  14 5
M  ZZI  14 1
M  ZZM  15 37
M  ZZI  15 124
M  ZZM  16 1
M  ZZI  16 111
M  ZZM  17 5
M  ZZI  17 1
M  ZZM  18 5
M  ZZI  18 1
M  ZZM  19 5
M  ZZI  19 1
M  ZZM  20 37
M  ZZI  20 124
M  ZZM  21 37
M  ZZI  21 124
M  ZZM  22 1
M  ZZI  22 111
M  ZZM  23 5
M  ZZI  23 1
M  ZZM  24 5
M  ZZI  24 1
M  ZZM  25 5
M  ZZI  25 1
M  ZZM  26 1
M  ZZI  26 112
M  ZZM  27 5
M  ZZI  27 1
M  ZZM  28 5
M  ZZI  28 1
M  ZZM  29 15
M  ZZI  29 240
M  ZZM  30 3
M  ZZI  30 121
M  ZZM  31 9
M  ZZI  31 220
M  ZZM  32 10
M  ZZI  32 191
M  ZZM  33 28
M  ZZI  33 11
M  ZZM  34 3
M  ZZI  34 121
M  ZZM  35 7
M  ZZI  35 81
M  ZZM  36 10
M  ZZI  36 192
M  ZZM  37 1
M  ZZI  37 112
M  ZZM  38 5
M  ZZI  38 1
M  ZZM  39 5
M  ZZI  39 1
M  ZZM  40 1
M  ZZI  40 113
M  ZZM  41 5
M  ZZI  41 1
M  ZZM  42 1
M  ZZI  42 112
M  ZZM  43 5
M  ZZI  43 1
M  ZZM  44 5
M  ZZI  44 1
M  ZZM  45 1
M  ZZI  45 112
M  ZZM  46 5
M  ZZI  46 1
M  ZZM  47 5
M  ZZI  47 1
M  ZZM  48 1
M  ZZI  48 112
M  ZZM  49 5
M  ZZI  49 1
M  ZZM  50 5
M  ZZI  50 1
M  ZZM  51 6
M  ZZI  51 65
M  END
> <NAME>
Z24701645

> <Score>
-28.234685

> <Natom>
51

> <Nflex>
4

> <Hbond>
-4.767709

> <Hphob>
-6.170267

> <VwInt>
-28.980113

> <Eintl>
7.967111

> <Dsolv>
14.141418

> <SolEl>
5.963254

> <mfScore>
-79.157828

> <RecConf>
1

> <molLogP>
2.778615

$$$$
Z221523618
  MOLSOFT 11211612053D

 51 53  0  0  1  0  0  0  0  0999 V2000
  -35.8925    6.8143   64.7393 O   0  0  0
  -34.8953    6.7225   65.4384 C   0  0  0
  -34.6594    5.7176   66.3114 O   0  0  0
  -35.7311    4.7967   66.4586 C   0  0  0
  -35.9136    4.2677   65.5174 H   0  0  0
  -36.6396    5.3342   66.7503 H   0  0  0
  -35.3178    3.8296   67.5301 C   0  0  0
  -34.5812    2.6982   67.2108 C   0  0  0
  -34.3257    2.4847   66.1774 H   0  0  0
  -34.1588    1.8335   68.1999 C   0  0  0
  -33.5820    0.9524   67.9393 H   0  0  0
  -34.4618    2.0914   69.5196 C   0  0  0
  -34.1295    1.4103   70.2964 H   0  0  0
  -35.1826    3.2197   69.8499 C   0  0  0
  -35.4162    3.4275   70.8893 H   0  0  0
  -35.6043    4.0876   68.8629 C   0  0  0
  -36.1598    4.9779   69.1430 H   0  0  0
  -33.8587    7.6045   65.5149 N   0  0  0
  -33.1246    7.3678   66.1724 H   0  0  0
  -33.7810    8.8494   64.7655 C   0  0  2
  -34.7014    8.9960   64.1909 H   0  0  0
  -32.5949    8.7536   63.8103 C   0  0  0
  -32.3931    9.7003   63.3077 H   0  0  0
  -32.7740    7.9902   63.0464 H   0  0  0
  -31.6812    8.4679   64.3420 H   0  0  0
  -33.6150   10.0393   65.7287 C   0  0  0
  -32.7089   10.8435   65.5708 O   0  0  0
  -34.5515   10.2280   66.7445 N   0  0  0
  -35.7289    9.3940   66.9507 C   0  0  0
  -36.4690    9.9433   67.5318 H   0  0  0
  -35.4482    8.4963   67.5082 H   0  0  0
  -36.1817    9.1261   65.9936 H   0  0  0
  -34.2340   11.1956   67.7995 C   0  0  0
  -33.6158   12.0083   67.4038 H   0  0  0
  -35.1545   11.6091   68.2166 H   0  0  0
  -33.4717   10.4460   68.8741 C   0  0  0
  -32.1003   10.4566   68.7618 N   0  0  0
  -31.6468   10.9969   68.0327 H   0  0  0
  -31.2749    9.7637   69.5953 C   0  0  0
  -30.0635    9.7057   69.4563 O   0  0  0
  -31.9595    9.0325   70.6671 C   0  0  0
  -33.3410    9.0635   70.7023 C   0  0  0
  -34.1110    9.7971   69.7938 N   0  0  0
  -33.9869    8.3181   71.6669 C   0  0  0
  -35.0713    8.3103   71.7026 H   0  0  0
  -33.2671    7.5716   72.5771 C   0  0  0
  -33.7939    6.9728   73.3112 H   0  0  0
  -31.8872    7.5768   72.5511 C   0  0  0
  -31.3257    6.9952   73.2751 H   0  0  0
  -31.2210    8.3134   71.5945 C   0  0  0
  -30.1340    8.3148   71.5744 H   0  0  0
  2  1  2
  2  3  1
  2 18  1
  3  4  1
  4  5  1
  4  6  1
  4  7  1
  7  8  2
  7 16  1
  8  9  1
  8 10  1
 10 11  1
 10 12  2
 12 13  1
 12 14  1
 14 15  1
 14 16  2
 16 17  1
 18 19  1
 20 18  1
 20 21  1
 20 22  1
 20 26  1
 22 23  1
 22 24  1
 22 25  1
 26 27  2
 26 28  1
 28 29  1
 28 33  1
 29 30  1
 29 31  1
 29 32  1
 33 34  1
 33 35  1
 33 36  1
 36 37  1
 36 43  2
 37 38  1
 37 39  1
 39 40  2
 39 41  1
 41 42  2
 41 50  1
 42 43  1
 42 44  1
 44 45  1
 44 46  2
 46 47  1
 46 48  1
 48 49  1
 48 50  2
 50 51  1
M  ZZC   1 o3
M  ZZC   2 c14
M  ZZC   3 o4
M  ZZC   4 c15
M  ZZC   5 h6
M  ZZC   6 h7
M  ZZC   7 c16
M  ZZC   8 c17
M  ZZC   9 h5
M  ZZC  10 c18
M  ZZC  11 h4
M  ZZC  12 c19
M  ZZC  13 h3
M  ZZC  14 c20
M  ZZC  15 h2
M  ZZC  16 c21
M  ZZC  17 h1
M  ZZC  18 n4
M  ZZC  19 h8
M  ZZC  20 c2
M  ZZC  21 h22
M  ZZC  22 c1
M  ZZC  23 h18
M  ZZC  24 h19
M  ZZC  25 h20
M  ZZC  26 c3
M  ZZC  27 o1
M  ZZC  28 n1
M  ZZC  29 c4
M  ZZC  30 h15
M  ZZC  31 h16
M  ZZC  32 h17
M  ZZC  33 c5
M  ZZC  34 h13
M  ZZC  35 h14
M  ZZC  36 c6
M  ZZC  37 n2
M  ZZC  38 h21
M  ZZC  39 c7
M  ZZC  40 o2
M  ZZC  41 c8
M  ZZC  42 c13
M  ZZC  43 n3
M  ZZC  44 c12
M  ZZC  45 h9
M  ZZC  46 c11
M  ZZC  47 h10
M  ZZC  48 c10
M  ZZC  49 h11
M  ZZC  50 c9
M  ZZC  51 h12
M  ZZM   1 7
M  ZZI   1 82
M  ZZM   2 3
M  ZZI   2 123
M  ZZM   3 6
M  ZZI   3 65
M  ZZM   4 1
M  ZZI   4 112
M  ZZM   5 5
M  ZZI   5 1
M  ZZM   6 5
M  ZZI   6 1
M  ZZM   7 37
M  ZZI   7 124
M  ZZM   8 37
M  ZZI   8 125
M  ZZM   9 5
M  ZZI   9 1
M  ZZM  10 37
M  ZZI  10 125
M  ZZM  11 5
M  ZZI  11 1
M  ZZM  12 37
M  ZZI  12 125
M  ZZM  13 5
M  ZZI  13 1
M  ZZM  14 37
M  ZZI  14 125
M  ZZM  15 5
M  ZZI  15 1
M  ZZM  16 37
M  ZZI  16 125
M  ZZM  17 5
M  ZZI  17 1
M  ZZM  18 10
M  ZZI  18 211
M  ZZM  19 28
M  ZZI  19 11
M  ZZM  20 1
M  ZZI  20 113
M  ZZM  21 5
M  ZZI  21 1
M  ZZM  22 1
M  ZZI  22 111
M  ZZM  23 5
M  ZZI  23 1
M  ZZM  24 5
M  ZZI  24 1
M  ZZM  25 5
M  ZZI  25 1
M  ZZM  26 3
M  ZZI  26 121
M  ZZM  27 7
M  ZZI  27 81
M  ZZM  28 10
M  ZZI  28 192
M  ZZM  29 1
M  ZZI  29 111
M  ZZM  30 5
M  ZZI  30 1
M  ZZM  31 5
M  ZZI  31 1
M  ZZM  32 5
M  ZZI  32 1
M  ZZM  33 1
M  ZZI  33 112
M  ZZM  34 5
M  ZZI  34 1
M  ZZM  35 5
M  ZZI  35 1
M  ZZM  36 3
M  ZZI  36 121
M  ZZM  37 10
M  ZZI  37 191
M  ZZM  38 28
M  ZZI  38 11
M  ZZM  39 3
M  ZZI  39 121
M  ZZM  40 7
M  ZZI  40 81
M  ZZM  41 37
M  ZZI  41 124
M  ZZM  42 37
M  ZZI  42 124
M  ZZM  43 9
M  ZZI  43 220
M  ZZM  44 37
M  ZZI  44 125
M  ZZM  45 5
M  ZZI  45 1
M  ZZM  46 37
M  ZZI  46 125
M  ZZM  47 5
M  ZZI  47 1
M  ZZM  48 37
M  ZZI  48 125
M  ZZM  49 5
M  ZZI  49 1
M  ZZM  50 37
M  ZZI  50 125
M  ZZM  51 5
M  ZZI  51 1
M  END
> <NAME>
Z221523618

> <Score>
-28.050305

> <Natom>
51

> <Nflex>
8

> <Hbond>
-5.250684

> <Hphob>
-6.337632

> <VwInt>
-30.086425

> <Eintl>
7.122799

> <Dsolv>
12.811028

> <SolEl>
7.815595

> <mfScore>
-94.171391

> <RecConf>
1

> <molLogP>
1.322194

$$$$
Z297195512
  MOLSOFT 11211612053D

 51 53  0  0  0  0  0  0  0  0999 V2000
  -34.5023    2.8410   72.5500 O   0  0  0
  -35.1683    3.4994   71.7600 C   0  0  0
  -34.9851    3.3657   70.2916 C   0  0  0
  -34.1167    2.3979   69.8137 C   0  0  0
  -33.5704    1.7535   70.4958 H   0  0  0
  -33.9466    2.2439   68.4533 C   0  0  0
  -33.2675    1.4826   68.0815 H   0  0  0
  -34.6282    3.0641   67.5701 C   0  0  0
  -34.4662    2.9115   66.0951 C   0  0  0
  -35.1847    2.1890   65.7083 H   0  0  0
  -34.6326    3.8705   65.5989 H   0  0  0
  -33.4565    2.5766   65.8520 H   0  0  0
  -35.5099    4.0078   68.0547 C   0  0  0
  -36.0655    4.6336   67.3650 H   0  0  0
  -35.6950    4.1664   69.4070 C   0  0  0
  -36.4003    4.9217   69.7356 H   0  0  0
  -36.2249    4.3972   72.2679 C   0  0  0
  -37.4135    3.7802   72.6172 C   0  0  0
  -37.5142    2.6991   72.5736 H   0  0  0
  -38.4901    4.5470   72.9942 C   0  0  0
  -39.4180    4.0578   73.2600 H   0  0  0
  -38.3888    5.9221   73.0218 C   0  0  0
  -39.2528    6.5215   73.2922 H   0  0  0
  -37.1931    6.5428   72.7181 C   0  0  0
  -37.1515    7.6227   72.8070 H   0  0  0
  -36.0872    5.7875   72.3312 C   0  0  0
  -34.7881    6.4467   71.9941 C   0  0  0
  -33.7473    5.8116   72.0831 O   0  0  0
  -34.8671    7.7609   71.5787 N   0  0  0
  -35.7633    8.2262   71.4983 H   0  0  0
  -33.6884    8.5346   71.2476 C   0  0  0
  -32.7978    7.8980   71.2483 H   0  0  0
  -33.5681    9.2734   72.0462 H   0  0  0
  -33.8253    9.2233   69.9162 C   0  0  0
  -33.6640   10.5986   69.8019 C   0  0  0
  -33.4484   11.2023   70.6788 H   0  0  0
  -33.7722   11.2241   68.5746 C   0  0  0
  -33.6503   12.3011   68.5027 H   0  0  0
  -34.0352   10.4841   67.4399 C   0  0  0
  -34.1261   10.9819   66.4815 H   0  0  0
  -34.1794    9.1135   67.5387 C   0  0  0
  -34.0806    8.4870   68.7676 C   0  0  0
  -34.1863    7.4077   68.8277 H   0  0  0
  -34.4560    8.3354   66.3574 N   0  0  0
  -34.1190    8.7403   65.4818 H   0  0  0
  -36.0253    7.7000   66.2266 S   0  0  0
  -36.0935    6.9235   65.0098 O   0  0  0
  -36.4745    7.1675   67.4936 O   0  0  0
  -36.8547    9.1137   65.9345 N   0  0  0
  -37.8646    8.9659   66.0202 H   0  0  0
  -36.6489    9.4925   65.0091 H   0  0  0
  2  1  2
  2  3  1
  2 17  1
  3  4  1
  3 15  2
  4  5  1
  4  6  2
  6  7  1
  6  8  1
  8  9  1
  8 13  2
  9 10  1
  9 11  1
  9 12  1
 13 14  1
 13 15  1
 15 16  1
 17 18  2
 17 26  1
 18 19  1
 18 20  1
 20 21  1
 20 22  2
 22 23  1
 22 24  1
 24 25  1
 24 26  2
 26 27  1
 27 28  2
 27 29  1
 29 30  1
 29 31  1
 31 32  1
 31 33  1
 31 34  1
 34 35  2
 34 42  1
 35 36  1
 35 37  1
 37 38  1
 37 39  2
 39 40  1
 39 41  1
 41 42  2
 41 44  1
 42 43  1
 44 45  1
 44 46  1
 46 47  2
 46 48  2
 46 49  1
 49 50  1
 49 51  1
M  ZZC   1 o1
M  ZZC   2 c8
M  ZZC   3 c5
M  ZZC   4 c4
M  ZZC   5 h17
M  ZZC   6 c3
M  ZZC   7 h18
M  ZZC   8 c2
M  ZZC   9 c1
M  ZZC  10 h19
M  ZZC  11 h20
M  ZZC  12 h21
M  ZZC  13 c7
M  ZZC  14 h15
M  ZZC  15 c6
M  ZZC  16 h16
M  ZZC  17 c9
M  ZZC  18 c10
M  ZZC  19 h14
M  ZZC  20 c11
M  ZZC  21 h13
M  ZZC  22 c12
M  ZZC  23 h12
M  ZZC  24 c13
M  ZZC  25 h11
M  ZZC  26 c14
M  ZZC  27 c15
M  ZZC  28 o2
M  ZZC  29 n1
M  ZZC  30 h10
M  ZZC  31 c16
M  ZZC  32 h8
M  ZZC  33 h9
M  ZZC  34 c17
M  ZZC  35 c18
M  ZZC  36 h7
M  ZZC  37 c19
M  ZZC  38 h6
M  ZZC  39 c20
M  ZZC  40 h5
M  ZZC  41 c21
M  ZZC  42 c22
M  ZZC  43 h4
M  ZZC  44 n2
M  ZZC  45 h3
M  ZZC  46 s1
M  ZZC  47 o3
M  ZZC  48 o4
M  ZZC  49 n3
M  ZZC  50 h1
M  ZZC  51 h2
M  ZZM   1 7
M  ZZI   1 80
M  ZZM   2 3
M  ZZI   2 122
M  ZZM   3 37
M  ZZI   3 124
M  ZZM   4 37
M  ZZI   4 125
M  ZZM   5 5
M  ZZI   5 1
M  ZZM   6 37
M  ZZI   6 125
M  ZZM   7 5
M  ZZI   7 1
M  ZZM   8 37
M  ZZI   8 124
M  ZZM   9 1
M  ZZI   9 111
M  ZZM  10 5
M  ZZI  10 1
M  ZZM  11 5
M  ZZI  11 1
M  ZZM  12 5
M  ZZI  12 1
M  ZZM  13 37
M  ZZI  13 125
M  ZZM  14 5
M  ZZI  14 1
M  ZZM  15 37
M  ZZI  15 125
M  ZZM  16 5
M  ZZI  16 1
M  ZZM  17 37
M  ZZI  17 124
M  ZZM  18 37
M  ZZI  18 125
M  ZZM  19 5
M  ZZI  19 1
M  ZZM  20 37
M  ZZI  20 125
M  ZZM  21 5
M  ZZI  21 1
M  ZZM  22 37
M  ZZI  22 125
M  ZZM  23 5
M  ZZI  23 1
M  ZZM  24 37
M  ZZI  24 125
M  ZZM  25 5
M  ZZI  25 1
M  ZZM  26 37
M  ZZI  26 124
M  ZZM  27 3
M  ZZI  27 121
M  ZZM  28 7
M  ZZI  28 81
M  ZZM  29 10
M  ZZI  29 211
M  ZZM  30 28
M  ZZI  30 11
M  ZZM  31 1
M  ZZI  31 112
M  ZZM  32 5
M  ZZI  32 1
M  ZZM  33 5
M  ZZI  33 1
M  ZZM  34 37
M  ZZI  34 124
M  ZZM  35 37
M  ZZI  35 125
M  ZZM  36 5
M  ZZI  36 1
M  ZZM  37 37
M  ZZI  37 125
M  ZZM  38 5
M  ZZI  38 1
M  ZZM  39 37
M  ZZI  39 125
M  ZZM  40 5
M  ZZI  40 1
M  ZZM  41 37
M  ZZI  41 124
M  ZZM  42 37
M  ZZI  42 125
M  ZZM  43 5
M  ZZI  43 1
M  ZZM  44 43
M  ZZI  44 196
M  ZZM  45 28
M  ZZI  45 11
M  ZZM  46 18
M  ZZI  46 250
M  ZZM  47 32
M  ZZI  47 73
M  ZZM  48 32
M  ZZI  48 73
M  ZZM  49 43
M  ZZI  49 226
M  ZZM  50 28
M  ZZI  50 11
M  ZZM  51 28
M  ZZI  51 11
M  END
> <NAME>
Z297195512

> <Score>
-27.589827

> <Natom>
51

> <Nflex>
5

> <Hbond>
-3.834543

> <Hphob>
-5.861169

> <VwInt>
-30.632505

> <Eintl>
8.399727

> <Dsolv>
11.531484

> <SolEl>
7.609761

> <mfScore>
-97.359561

> <RecConf>
1

> <molLogP>
3.127221

$$$$
Z384591958
  MOLSOFT 11211612053D

 51 53  0  0  0  0  0  0  0  0999 V2000
  -34.2448    5.6592   72.0034 O   0  0  0
  -35.5358    5.0799   71.6896 S   0  0  0
  -35.8846    3.7219   72.0585 O   0  0  0
  -36.7605    6.1507   72.2229 N   0  0  0
  -36.5619    7.1462   72.0712 H   0  0  0
  -38.1600    5.7582   71.9529 C   0  0  0
  -38.3404    5.8093   70.8757 H   0  0  0
  -38.8583    6.4373   72.4493 H   0  0  0
  -38.3386    4.7314   72.2824 H   0  0  0
  -35.5560    5.0694   69.9429 C   0  0  0
  -35.7891    6.1996   69.1292 C   0  0  0
  -35.9635    7.2040   69.4853 H   0  0  0
  -35.7996    5.7803   67.8094 C   0  0  0
  -35.4823    4.4324   67.8281 N   0  0  0
  -35.3492    3.9852   69.1187 C   0  0  0
  -35.1234    2.9504   69.3420 H   0  0  0
  -35.2601    3.5875   66.6582 C   0  0  0
  -36.1852    3.5417   66.0794 H   0  0  0
  -34.9731    2.5850   66.9886 H   0  0  0
  -34.4531    4.0243   66.0644 H   0  0  0
  -36.0726    6.5554   66.6237 C   0  0  0
  -36.3641    6.0647   65.5429 O   0  0  0
  -35.9497    7.9139   66.8001 N   0  0  0
  -35.6498    8.2933   67.6884 H   0  0  0
  -36.0064    8.8139   65.6749 C   0  0  0
  -36.3138    9.7986   66.0369 H   0  0  0
  -36.7773    8.4770   64.9808 H   0  0  0
  -34.6590    8.8690   65.0144 C   0  0  0
  -34.3679    8.1196   63.8833 C   0  0  0
  -35.1256    7.5198   63.3897 H   0  0  0
  -33.0747    8.1166   63.4087 C   0  0  0
  -32.8074    7.5339   62.5339 H   0  0  0
  -32.1207    8.8554   64.0719 C   0  0  0
  -31.0929    8.8503   63.7229 H   0  0  0
  -32.3616    9.6048   65.1561 N   0  0  0
  -33.6256    9.5805   65.5999 C   0  0  0
  -33.9475   10.3109   66.7401 O   0  0  0
  -32.7834   10.8393   67.3908 C   0  0  0
  -31.9671   11.0020   66.6826 H   0  0  0
  -32.3812    9.9171   68.5350 C   0  0  0
  -31.3089   10.0153   68.7384 H   0  0  0
  -32.6023    8.8622   68.3420 H   0  0  0
  -33.1693   10.4402   69.7151 C   0  0  0
  -32.7623   10.1037   70.6734 H   0  0  0
  -34.2142   10.1143   69.6534 H   0  0  0
  -33.0711   11.9378   69.5422 C   0  0  0
  -32.0942   12.2915   69.8884 H   0  0  0
  -33.8327   12.4808   70.1072 H   0  0  0
  -33.1955   12.1525   68.0459 C   0  0  0
  -34.2227   12.4195   67.7785 H   0  0  0
  -32.5510   12.9748   67.7252 H   0  0  0
  2  1  2
  2  3  2
  2  4  1
  2 10  1
  4  5  1
  4  6  1
  6  7  1
  6  8  1
  6  9  1
 10 11  1
 10 15  2
 11 12  1
 11 13  2
 13 14  1
 13 21  1
 14 15  1
 14 17  1
 15 16  1
 17 18  1
 17 19  1
 17 20  1
 21 22  2
 21 23  1
 23 24  1
 23 25  1
 25 26  1
 25 27  1
 25 28  1
 28 29  2
 28 36  1
 29 30  1
 29 31  1
 31 32  1
 31 33  2
 33 34  1
 33 35  1
 35 36  2
 36 37  1
 37 38  1
 38 39  1
 38 40  1
 38 49  1
 40 41  1
 40 42  1
 40 43  1
 43 44  1
 43 45  1
 43 46  1
 46 47  1
 46 48  1
 46 49  1
 49 50  1
 49 51  1
M  ZZC   1 o1
M  ZZC   2 s1
M  ZZC   3 o2
M  ZZC   4 n1
M  ZZC   5 h21
M  ZZC   6 c1
M  ZZC   7 h22
M  ZZC   8 h23
M  ZZC   9 h24
M  ZZC  10 c2
M  ZZC  11 c3
M  ZZC  12 h20
M  ZZC  13 c4
M  ZZC  14 n2
M  ZZC  15 c5
M  ZZC  16 h19
M  ZZC  17 c6
M  ZZC  18 h16
M  ZZC  19 h17
M  ZZC  20 h18
M  ZZC  21 c7
M  ZZC  22 o3
M  ZZC  23 n3
M  ZZC  24 h15
M  ZZC  25 c8
M  ZZC  26 h13
M  ZZC  27 h14
M  ZZC  28 c9
M  ZZC  29 c10
M  ZZC  30 h12
M  ZZC  31 c11
M  ZZC  32 h11
M  ZZC  33 c12
M  ZZC  34 h10
M  ZZC  35 n4
M  ZZC  36 c13
M  ZZC  37 o4
M  ZZC  38 c14
M  ZZC  39 h9
M  ZZC  40 c15
M  ZZC  41 h7
M  ZZC  42 h8
M  ZZC  43 c16
M  ZZC  44 h5
M  ZZC  45 h6
M  ZZC  46 c17
M  ZZC  47 h3
M  ZZC  48 h4
M  ZZC  49 c18
M  ZZC  50 h1
M  ZZC  51 h2
M  ZZM   1 32
M  ZZI   1 73
M  ZZM   2 18
M  ZZI   2 250
M  ZZM   3 32
M  ZZI   3 73
M  ZZM   4 43
M  ZZI   4 196
M  ZZM   5 28
M  ZZI   5 11
M  ZZM   6 1
M  ZZI   6 111
M  ZZM   7 5
M  ZZI   7 1
M  ZZM   8 5
M  ZZI   8 1
M  ZZM   9 5
M  ZZI   9 1
M  ZZM  10 64
M  ZZI  10 105
M  ZZM  11 64
M  ZZI  11 105
M  ZZM  12 5
M  ZZI  12 1
M  ZZM  13 63
M  ZZI  13 104
M  ZZM  14 39
M  ZZI  14 215
M  ZZM  15 63
M  ZZI  15 104
M  ZZM  16 5
M  ZZI  16 1
M  ZZM  17 1
M  ZZI  17 111
M  ZZM  18 5
M  ZZI  18 1
M  ZZM  19 5
M  ZZI  19 1
M  ZZM  20 5
M  ZZI  20 1
M  ZZM  21 3
M  ZZI  21 121
M  ZZM  22 7
M  ZZI  22 81
M  ZZM  23 10
M  ZZI  23 211
M  ZZM  24 28
M  ZZI  24 11
M  ZZM  25 1
M  ZZI  25 112
M  ZZM  26 5
M  ZZI  26 1
M  ZZM  27 5
M  ZZI  27 1
M  ZZM  28 37
M  ZZI  28 124
M  ZZM  29 37
M  ZZI  29 125
M  ZZM  30 5
M  ZZI  30 1
M  ZZM  31 37
M  ZZI  31 125
M  ZZM  32 5
M  ZZI  32 1
M  ZZM  33 37
M  ZZI  33 125
M  ZZM  34 5
M  ZZI  34 1
M  ZZM  35 38
M  ZZI  35 223
M  ZZM  36 37
M  ZZI  36 124
M  ZZM  37 6
M  ZZI  37 59
M  ZZM  38 1
M  ZZI  38 113
M  ZZM  39 5
M  ZZI  39 1
M  ZZM  40 1
M  ZZI  40 112
M  ZZM  41 5
M  ZZI  41 1
M  ZZM  42 5
M  ZZI  42 1
M  ZZM  43 1
M  ZZI  43 112
M  ZZM  44 5
M  ZZI  44 1
M  ZZM  45 5
M  ZZI  45 1
M  ZZM  46 1
M  ZZI  46 112
M  ZZM  47 5
M  ZZI  47 1
M  ZZM  48 5
M  ZZI  48 1
M  ZZM  49 1
M  ZZI  49 112
M  ZZM  50 5
M  ZZI  50 1
M  ZZM  51 5
M  ZZI  51 1
M  END
> <NAME>
Z384591958

> <Score>
-27.06934

> <Natom>
51

> <Nflex>
5

> <Hbond>
-2.511356

> <Hphob>
-7.217798

> <VwInt>
-31.681829

> <Eintl>
7.103738

> <Dsolv>
10.947037

> <SolEl>
6.957373

> <mfScore>
-104.293802

> <RecConf>
1

> <molLogP>
1.427507

$$$$
Z16897049
  MOLSOFT 11211612053D

 51 54  0  0  1  0  0  0  0  0999 V2000
  -30.6025   10.8358   68.7855 H   0  0  0
  -30.2095   10.0072   69.1161 O   0  0  0
  -31.2643    9.0656   69.2546 C   0  0  2
  -30.7933    8.0846   69.3547 H   0  0  0
  -32.1254    9.0916   68.0156 C   0  0  0
  -31.5854    8.6662   66.8087 C   0  0  0
  -30.5479    8.3481   66.7614 H   0  0  0
  -32.3398    8.6358   65.6561 C   0  0  0
  -31.8930    8.3074   64.7222 H   0  0  0
  -33.6678    8.9953   65.6952 C   0  0  0
  -34.2407    8.9484   64.7757 H   0  0  0
  -34.2279    9.3987   66.9007 C   0  0  0
  -33.4519    9.5188   68.0457 C   0  0  0
  -34.0806   10.0510   69.3044 C   0  0  0
  -34.7302    9.2794   69.7309 H   0  0  0
  -34.7059   10.9174   69.0654 H   0  0  0
  -33.0428   10.4762   70.3285 C   0  0  0
  -33.5392   10.7148   71.2745 H   0  0  0
  -32.5353   11.3900   69.9985 H   0  0  0
  -32.0341    9.3614   70.5373 C   0  0  0
  -32.5641    8.4611   70.8664 H   0  0  0
  -31.3401    9.6416   71.3367 H   0  0  0
  -35.5862    9.6889   67.0602 O   0  0  0
  -36.4474    8.9949   66.1413 C   0  0  0
  -37.4764    9.2105   66.4354 H   0  0  0
  -36.3297    9.4115   65.1366 H   0  0  0
  -36.2794    7.4851   66.1078 C   0  0  0
  -36.3593    6.8957   65.0408 O   0  0  0
  -36.0723    6.8928   67.3467 N   0  0  0
  -36.1988    7.4647   68.1742 H   0  0  0
  -35.6580    5.5456   67.5401 C   0  0  0
  -35.2575    4.7592   66.4647 C   0  0  0
  -35.2654    5.1416   65.4524 H   0  0  0
  -34.8045    3.4711   66.6499 C   0  0  0
  -34.4929    2.8743   65.7983 H   0  0  0
  -34.7381    2.9464   67.9178 C   0  0  0
  -34.3808    1.9324   68.0685 H   0  0  0
  -35.1378    3.7098   68.9925 C   0  0  0
  -35.0923    3.2703   69.9848 H   0  0  0
  -35.6084    5.0090   68.8330 C   0  0  0
  -36.0651    5.7283   70.0151 C   0  0  0
  -35.1790    6.4102   70.8364 C   0  0  0
  -34.1282    6.4651   70.5772 H   0  0  0
  -35.6143    7.0242   71.9939 C   0  0  0
  -34.9086    7.5577   72.6228 H   0  0  0
  -36.9436    6.9613   72.3559 C   0  0  0
  -37.2871    7.4477   73.2628 H   0  0  0
  -37.8397    6.2967   71.5488 C   0  0  0
  -38.8900    6.2532   71.8211 H   0  0  0
  -37.4017    5.6963   70.3868 C   0  0  0
  -38.1224    5.1850   69.7613 H   0  0  0
  2  1  1
  3  2  1
  3  4  1
  3  5  1
  3 20  1
  5  6  2
  5 13  1
  6  7  1
  6  8  1
  8  9  1
  8 10  2
 10 11  1
 10 12  1
 12 13  2
 12 23  1
 13 14  1
 14 15  1
 14 16  1
 14 17  1
 17 18  1
 17 19  1
 17 20  1
 20 21  1
 20 22  1
 23 24  1
 24 25  1
 24 26  1
 24 27  1
 27 28  2
 27 29  1
 29 30  1
 29 31  1
 31 32  2
 31 40  1
 32 33  1
 32 34  1
 34 35  1
 34 36  2
 36 37  1
 36 38  1
 38 39  1
 38 40  2
 40 41  1
 41 42  1
 41 50  2
 42 43  1
 42 44  2
 44 45  1
 44 46  1
 46 47  1
 46 48  2
 48 49  1
 48 50  1
 50 51  1
M  ZZC   1 h1
M  ZZC   2 o3
M  ZZC   3 c24
M  ZZC   4 h23
M  ZZC   5 c19
M  ZZC   6 c18
M  ZZC   7 h8
M  ZZC   8 c17
M  ZZC   9 h9
M  ZZC  10 c16
M  ZZC  11 h10
M  ZZC  12 c15
M  ZZC  13 c20
M  ZZC  14 c21
M  ZZC  15 h6
M  ZZC  16 h7
M  ZZC  17 c22
M  ZZC  18 h4
M  ZZC  19 h5
M  ZZC  20 c23
M  ZZC  21 h2
M  ZZC  22 h3
M  ZZC  23 o2
M  ZZC  24 c14
M  ZZC  25 h11
M  ZZC  26 h12
M  ZZC  27 c13
M  ZZC  28 o1
M  ZZC  29 n1
M  ZZC  30 h13
M  ZZC  31 c12
M  ZZC  32 c11
M  ZZC  33 h14
M  ZZC  34 c10
M  ZZC  35 h15
M  ZZC  36 c9
M  ZZC  37 h16
M  ZZC  38 c8
M  ZZC  39 h17
M  ZZC  40 c7
M  ZZC  41 c4
M  ZZC  42 c3
M  ZZC  43 h20
M  ZZC  44 c2
M  ZZC  45 h21
M  ZZC  46 c1
M  ZZC  47 h22
M  ZZC  48 c6
M  ZZC  49 h18
M  ZZC  50 c5
M  ZZC  51 h19
M  ZZM   1 21
M  ZZI   1 20
M  ZZM   2 6
M  ZZI   2 60
M  ZZM   3 1
M  ZZI   3 113
M  ZZM   4 5
M  ZZI   4 1
M  ZZM   5 37
M  ZZI   5 124
M  ZZM   6 37
M  ZZI   6 125
M  ZZM   7 5
M  ZZI   7 1
M  ZZM   8 37
M  ZZI   8 125
M  ZZM   9 5
M  ZZI   9 1
M  ZZM  10 37
M  ZZI  10 125
M  ZZM  11 5
M  ZZI  11 1
M  ZZM  12 37
M  ZZI  12 124
M  ZZM  13 37
M  ZZI  13 124
M  ZZM  14 1
M  ZZI  14 112
M  ZZM  15 5
M  ZZI  15 1
M  ZZM  16 5
M  ZZI  16 1
M  ZZM  17 1
M  ZZI  17 112
M  ZZM  18 5
M  ZZI  18 1
M  ZZM  19 5
M  ZZI  19 1
M  ZZM  20 1
M  ZZI  20 112
M  ZZM  21 5
M  ZZI  21 1
M  ZZM  22 5
M  ZZI  22 1
M  ZZM  23 6
M  ZZI  23 59
M  ZZM  24 1
M  ZZI  24 112
M  ZZM  25 5
M  ZZI  25 1
M  ZZM  26 5
M  ZZI  26 1
M  ZZM  27 3
M  ZZI  27 121
M  ZZM  28 7
M  ZZI  28 81
M  ZZM  29 10
M  ZZI  29 191
M  ZZM  30 28
M  ZZI  30 11
M  ZZM  31 37
M  ZZI  31 124
M  ZZM  32 37
M  ZZI  32 125
M  ZZM  33 5
M  ZZI  33 1
M  ZZM  34 37
M  ZZI  34 125
M  ZZM  35 5
M  ZZI  35 1
M  ZZM  36 37
M  ZZI  36 125
M  ZZM  37 5
M  ZZI  37 1
M  ZZM  38 37
M  ZZI  38 125
M  ZZM  39 5
M  ZZI  39 1
M  ZZM  40 37
M  ZZI  40 124
M  ZZM  41 37
M  ZZI  41 124
M  ZZM  42 37
M  ZZI  42 125
M  ZZM  43 5
M  ZZI  43 1
M  ZZM  44 37
M  ZZI  44 125
M  ZZM  45 5
M  ZZI  45 1
M  ZZM  46 37
M  ZZI  46 125
M  ZZM  47 5
M  ZZI  47 1
M  ZZM  48 37
M  ZZI  48 125
M  ZZM  49 5
M  ZZI  49 1
M  ZZM  50 37
M  ZZI  50 125
M  ZZM  51 5
M  ZZI  51 1
M  END
> <NAME>
Z16897049

> <Score>
-26.686608

> <Natom>
51

> <Nflex>
4

> <Hbond>
-3.816723

> <Hphob>
-8.041478

> <VwInt>
-29.356875

> <Eintl>
8.032279

> <Dsolv>
13.976839

> <SolEl>
7.320815

> <mfScore>
-99.964416

> <RecConf>
1

> <molLogP>
4.553731

$$$$
Z66122897
  MOLSOFT 11211612053D

 51 54  0  0  1  0  0  0  0  0999 V2000
  -35.1888    5.0699   65.5527 H   0  0  0
  -35.1875    4.7632   66.5908 C   0  0  0
  -35.2624    5.6976   67.6223 C   0  0  0
  -35.2416    5.2082   68.9244 C   0  0  0
  -35.2913    5.8917   69.7669 H   0  0  0
  -35.1527    3.8553   69.1848 C   0  0  0
  -35.1392    3.5015   70.2107 H   0  0  0
  -35.0836    2.9522   68.1483 C   0  0  0
  -35.0171    1.8876   68.3490 H   0  0  0
  -35.0985    3.4116   66.8512 C   0  0  0
  -35.0402    2.7048   66.0299 H   0  0  0
  -35.3308    7.2041   67.3912 C   0  0  2
  -35.7057    7.6321   68.3269 H   0  0  0
  -36.3280    7.6590   66.3356 C   0  0  0
  -37.3061    7.2035   66.5184 H   0  0  0
  -36.4676    8.7467   66.3698 H   0  0  0
  -35.9307    7.3104   65.0091 O   0  0  0
  -34.5911    7.6160   64.7660 C   0  0  0
  -34.2456    7.6287   63.4308 C   0  0  0
  -34.9965    7.4349   62.6753 H   0  0  0
  -32.9554    7.8951   63.0419 C   0  0  0
  -32.6855    7.8998   61.9921 H   0  0  0
  -31.9992    8.1294   63.9958 C   0  0  0
  -30.9724    8.3108   63.6918 H   0  0  0
  -32.3327    8.0979   65.3322 C   0  0  0
  -31.5088    8.2129   66.0155 H   0  0  0
  -33.6382    7.8602   65.7613 C   0  0  0
  -34.0225    7.8011   67.1405 N   0  0  0
  -33.3235    8.2612   68.2661 C   0  0  0
  -33.7496    8.0861   69.4003 O   0  0  0
  -32.0208    9.0202   68.0716 C   0  0  0
  -32.1411    9.7958   67.3075 H   0  0  0
  -31.2168    8.3183   67.8395 H   0  0  0
  -31.6660    9.6760   69.3134 N   0  0  0
  -30.9765    9.0888   70.3397 C   0  0  0
  -30.5413    7.9508   70.4484 O   0  0  0
  -30.8757   10.1378   71.4042 C   0  0  0
  -30.3338    9.9463   72.4846 O   0  0  0
  -31.5178   11.2363   70.8888 N   0  0  0
  -32.0452   10.9413   69.6595 C   0  0  0
  -32.7703   11.6648   68.9943 O   0  0  0
  -31.7697   12.4842   71.5855 C   0  0  0
  -32.1070   13.1878   70.8251 H   0  0  0
  -30.5180   13.0528   72.2438 C   0  0  0
  -30.1723   12.4344   73.0768 H   0  0  0
  -30.7068   14.0572   72.6348 H   0  0  0
  -29.7031   13.1195   71.5195 H   0  0  0
  -32.8972   12.3114   72.5894 C   0  0  0
  -33.8123   12.0010   72.0785 H   0  0  0
  -33.1030   13.2453   73.1207 H   0  0  0
  -32.6576   11.5391   73.3233 H   0  0  0
  2  1  1
  2  3  1
  2 10  2
  3  4  2
 12  3  1
  4  5  1
  4  6  1
  6  7  1
  6  8  2
  8  9  1
  8 10  1
 10 11  1
 12 13  1
 12 14  1
 12 28  1
 14 15  1
 14 16  1
 14 17  1
 17 18  1
 18 19  1
 18 27  2
 19 20  1
 19 21  2
 21 22  1
 21 23  1
 23 24  1
 23 25  2
 25 26  1
 25 27  1
 27 28  1
 28 29  1
 29 30  2
 29 31  1
 31 32  1
 31 33  1
 31 34  1
 34 35  1
 34 40  1
 35 36  2
 35 37  1
 37 38  2
 37 39  1
 39 40  1
 39 42  1
 40 41  2
 42 43  1
 42 44  1
 42 48  1
 44 45  1
 44 46  1
 44 47  1
 48 49  1
 48 50  1
 48 51  1
M  ZZC   1 h1
M  ZZC   2 c22
M  ZZC   3 c17
M  ZZC   4 c18
M  ZZC   5 h5
M  ZZC   6 c19
M  ZZC   7 h4
M  ZZC   8 c20
M  ZZC   9 h3
M  ZZC  10 c21
M  ZZC  11 h2
M  ZZC  12 c16
M  ZZC  13 h21
M  ZZC  14 c15
M  ZZC  15 h6
M  ZZC  16 h7
M  ZZC  17 o5
M  ZZC  18 c14
M  ZZC  19 c13
M  ZZC  20 h8
M  ZZC  21 c12
M  ZZC  22 h9
M  ZZC  23 c11
M  ZZC  24 h10
M  ZZC  25 c10
M  ZZC  26 h11
M  ZZC  27 c9
M  ZZC  28 n3
M  ZZC  29 c8
M  ZZC  30 o4
M  ZZC  31 c7
M  ZZC  32 h12
M  ZZC  33 h13
M  ZZC  34 n2
M  ZZC  35 c5
M  ZZC  36 o2
M  ZZC  37 c4
M  ZZC  38 o1
M  ZZC  39 n1
M  ZZC  40 c6
M  ZZC  41 o3
M  ZZC  42 c2
M  ZZC  43 h17
M  ZZC  44 c3
M  ZZC  45 h14
M  ZZC  46 h15
M  ZZC  47 h16
M  ZZC  48 c1
M  ZZC  49 h18
M  ZZC  50 h19
M  ZZC  51 h20
M  ZZM   1 5
M  ZZI   1 1
M  ZZM   2 37
M  ZZI   2 125
M  ZZM   3 37
M  ZZI   3 124
M  ZZM   4 37
M  ZZI   4 125
M  ZZM   5 5
M  ZZI   5 1
M  ZZM   6 37
M  ZZI   6 125
M  ZZM   7 5
M  ZZI   7 1
M  ZZM   8 37
M  ZZI   8 125
M  ZZM   9 5
M  ZZI   9 1
M  ZZM  10 37
M  ZZI  10 125
M  ZZM  11 5
M  ZZI  11 1
M  ZZM  12 1
M  ZZI  12 113
M  ZZM  13 5
M  ZZI  13 1
M  ZZM  14 1
M  ZZI  14 112
M  ZZM  15 5
M  ZZI  15 1
M  ZZM  16 5
M  ZZI  16 1
M  ZZM  17 6
M  ZZI  17 59
M  ZZM  18 37
M  ZZI  18 124
M  ZZM  19 37
M  ZZI  19 125
M  ZZM  20 5
M  ZZI  20 1
M  ZZM  21 37
M  ZZI  21 125
M  ZZM  22 5
M  ZZI  22 1
M  ZZM  23 37
M  ZZI  23 125
M  ZZM  24 5
M  ZZI  24 1
M  ZZM  25 37
M  ZZI  25 125
M  ZZM  26 5
M  ZZI  26 1
M  ZZM  27 37
M  ZZI  27 124
M  ZZM  28 10
M  ZZI  28 192
M  ZZM  29 3
M  ZZI  29 121
M  ZZM  30 7
M  ZZI  30 81
M  ZZM  31 1
M  ZZI  31 112
M  ZZM  32 5
M  ZZI  32 1
M  ZZM  33 5
M  ZZI  33 1
M  ZZM  34 10
M  ZZI  34 192
M  ZZM  35 3
M  ZZI  35 121
M  ZZM  36 7
M  ZZI  36 81
M  ZZM  37 3
M  ZZI  37 121
M  ZZM  38 7
M  ZZI  38 81
M  ZZM  39 10
M  ZZI  39 192
M  ZZM  40 3
M  ZZI  40 121
M  ZZM  41 7
M  ZZI  41 81
M  ZZM  42 1
M  ZZI  42 113
M  ZZM  43 5
M  ZZI  43 1
M  ZZM  44 1
M  ZZI  44 111
M  ZZM  45 5
M  ZZI  45 1
M  ZZM  46 5
M  ZZI  46 1
M  ZZM  47 5
M  ZZI  47 1
M  ZZM  48 1
M  ZZI  48 111
M  ZZM  49 5
M  ZZI  49 1
M  ZZM  50 5
M  ZZI  50 1
M  ZZM  51 5
M  ZZI  51 1
M  END
> <NAME>
Z66122897

> <Score>
-26.398851

> <Natom>
51

> <Nflex>
5

> <Hbond>
-2.915555

> <Hphob>
-7.483824

> <VwInt>
-32.365853

> <Eintl>
8.396153

> <Dsolv>
13.635433

> <SolEl>
7.774156

> <mfScore>
-119.53805

> <RecConf>
1

> <molLogP>
2.403564

$$$$
Z54608091
  MOLSOFT 11211612053D

 51 53  0  0  0  0  0  0  0  0999 V2000
  -36.3249    6.8250   65.0993 O   0  0  0
  -35.9745    7.4013   66.1199 C   0  0  0
  -35.6304    6.6945   67.3358 C   0  0  0
  -35.4789    5.3304   67.5445 C   0  0  0
  -35.5862    4.2682   66.5082 C   0  0  0
  -35.7859    3.2868   66.9418 H   0  0  0
  -34.6575    4.1966   65.9365 H   0  0  0
  -36.4052    4.4659   65.8139 H   0  0  0
  -35.2007    5.1269   68.9379 C   0  0  0
  -34.9783    3.8452   69.6005 C   0  0  0
  -34.5619    2.8723   68.9852 O   0  0  0
  -35.2633    3.7155   71.0726 C   0  0  0
  -34.4503    4.1551   71.6568 H   0  0  0
  -35.3415    2.6551   71.3306 H   0  0  0
  -36.2202    4.1855   71.3187 H   0  0  0
  -35.1625    6.3873   69.5214 C   0  0  0
  -34.9044    6.8562   70.9078 C   0  0  0
  -35.7038    6.5390   71.5830 H   0  0  0
  -34.8526    7.9483   70.9541 H   0  0  0
  -33.9506    6.4729   71.2802 H   0  0  0
  -35.3867    7.3065   68.5363 N   0  0  0
  -35.3835    8.3086   68.6888 H   0  0  0
  -35.9045    8.9187   66.1363 C   0  0  0
  -36.2764    9.3336   65.1946 H   0  0  0
  -36.5993    9.2795   66.8997 H   0  0  0
  -34.5971    9.4427   66.4484 O   0  0  0
  -33.5929    9.0406   65.5562 C   0  0  0
  -32.2803    8.9987   66.0238 C   0  0  0
  -31.2620    8.5572   65.1923 C   0  0  0
  -30.2356    8.5059   65.5447 H   0  0  0
  -31.5365    8.1916   63.8933 C   0  0  0
  -30.7341    7.8582   63.2419 H   0  0  0
  -32.8269    8.2495   63.4198 C   0  0  0
  -33.0347    7.9492   62.3975 H   0  0  0
  -33.8522    8.6778   64.2367 C   0  0  0
  -34.8454    8.7202   63.8076 H   0  0  0
  -31.8916    9.3933   67.4049 C   0  0  0
  -30.8470    8.9438   67.8547 O   0  0  0
  -32.7348   10.2909   68.0353 N   0  0  0
  -33.5396   10.6401   67.5263 H   0  0  0
  -32.5159   10.8194   69.3302 C   0  0  0
  -31.4948   10.3806   70.1653 C   0  0  0
  -30.8134    9.5944   69.8653 H   0  0  0
  -31.3231   10.9424   71.4144 C   0  0  0
  -30.5192   10.5985   72.0575 H   0  0  0
  -32.1719   11.9386   71.8452 C   0  0  0
  -32.0403   12.3818   72.8272 H   0  0  0
  -33.1886   12.3735   71.0234 C   0  0  0
  -33.8522   13.1586   71.3684 H   0  0  0
  -33.3604   11.8235   69.7684 C   0  0  0
  -34.1512   12.1976   69.1257 H   0  0  0
  2  1  2
  2  3  1
  2 23  1
  3  4  2
  3 21  1
  4  5  1
  4  9  1
  5  6  1
  5  7  1
  5  8  1
  9 10  1
  9 16  2
 10 11  2
 10 12  1
 12 13  1
 12 14  1
 12 15  1
 16 17  1
 16 21  1
 17 18  1
 17 19  1
 17 20  1
 21 22  1
 23 24  1
 23 25  1
 23 26  1
 26 27  1
 27 28  1
 27 35  2
 28 29  2
 28 37  1
 29 30  1
 29 31  1
 31 32  1
 31 33  2
 33 34  1
 33 35  1
 35 36  1
 37 38  2
 37 39  1
 39 40  1
 39 41  1
 41 42  2
 41 50  1
 42 43  1
 42 44  1
 44 45  1
 44 46  2
 46 47  1
 46 48  1
 48 49  1
 48 50  2
 50 51  1
M  ZZC   1 o1
M  ZZC   2 c6
M  ZZC   3 c5
M  ZZC   4 c2
M  ZZC   5 c1
M  ZZC   6 h19
M  ZZC   7 h20
M  ZZC   8 h21
M  ZZC   9 c3
M  ZZC  10 c22
M  ZZC  11 o4
M  ZZC  12 c23
M  ZZC  13 h1
M  ZZC  14 h2
M  ZZC  15 h3
M  ZZC  16 c4
M  ZZC  17 c21
M  ZZC  18 h4
M  ZZC  19 h5
M  ZZC  20 h6
M  ZZC  21 n1
M  ZZC  22 h22
M  ZZC  23 c7
M  ZZC  24 h17
M  ZZC  25 h18
M  ZZC  26 o2
M  ZZC  27 c8
M  ZZC  28 c13
M  ZZC  29 c12
M  ZZC  30 h13
M  ZZC  31 c11
M  ZZC  32 h14
M  ZZC  33 c10
M  ZZC  34 h15
M  ZZC  35 c9
M  ZZC  36 h16
M  ZZC  37 c14
M  ZZC  38 o3
M  ZZC  39 n2
M  ZZC  40 h12
M  ZZC  41 c15
M  ZZC  42 c16
M  ZZC  43 h11
M  ZZC  44 c17
M  ZZC  45 h10
M  ZZC  46 c18
M  ZZC  47 h9
M  ZZC  48 c19
M  ZZC  49 h8
M  ZZC  50 c20
M  ZZC  51 h7
M  ZZM   1 7
M  ZZI   1 80
M  ZZM   2 3
M  ZZI   2 122
M  ZZM   3 63
M  ZZI   3 104
M  ZZM   4 64
M  ZZI   4 105
M  ZZM   5 1
M  ZZI   5 111
M  ZZM   6 5
M  ZZI   6 1
M  ZZM   7 5
M  ZZI   7 1
M  ZZM   8 5
M  ZZI   8 1
M  ZZM   9 64
M  ZZI   9 105
M  ZZM  10 3
M  ZZI  10 122
M  ZZM  11 7
M  ZZI  11 80
M  ZZM  12 1
M  ZZI  12 111
M  ZZM  13 5
M  ZZI  13 1
M  ZZM  14 5
M  ZZI  14 1
M  ZZM  15 5
M  ZZI  15 1
M  ZZM  16 63
M  ZZI  16 104
M  ZZM  17 1
M  ZZI  17 111
M  ZZM  18 5
M  ZZI  18 1
M  ZZM  19 5
M  ZZI  19 1
M  ZZM  20 5
M  ZZI  20 1
M  ZZM  21 39
M  ZZI  21 215
M  ZZM  22 23
M  ZZI  22 10
M  ZZM  23 1
M  ZZI  23 112
M  ZZM  24 5
M  ZZI  24 1
M  ZZM  25 5
M  ZZI  25 1
M  ZZM  26 6
M  ZZI  26 59
M  ZZM  27 37
M  ZZI  27 124
M  ZZM  28 37
M  ZZI  28 124
M  ZZM  29 37
M  ZZI  29 125
M  ZZM  30 5
M  ZZI  30 1
M  ZZM  31 37
M  ZZI  31 125
M  ZZM  32 5
M  ZZI  32 1
M  ZZM  33 37
M  ZZI  33 125
M  ZZM  34 5
M  ZZI  34 1
M  ZZM  35 37
M  ZZI  35 125
M  ZZM  36 5
M  ZZI  36 1
M  ZZM  37 3
M  ZZI  37 121
M  ZZM  38 7
M  ZZI  38 81
M  ZZM  39 10
M  ZZI  39 191
M  ZZM  40 28
M  ZZI  40 11
M  ZZM  41 37
M  ZZI  41 124
M  ZZM  42 37
M  ZZI  42 125
M  ZZM  43 5
M  ZZI  43 1
M  ZZM  44 37
M  ZZI  44 125
M  ZZM  45 5
M  ZZI  45 1
M  ZZM  46 37
M  ZZI  46 125
M  ZZM  47 5
M  ZZI  47 1
M  ZZM  48 37
M  ZZI  48 125
M  ZZM  49 5
M  ZZI  49 1
M  ZZM  50 37
M  ZZI  50 125
M  ZZM  51 5
M  ZZI  51 1
M  END
> <NAME>
Z54608091

> <Score>
-26.318557

> <Natom>
51

> <Nflex>
3

> <Hbond>
-2.154502

> <Hphob>
-6.755628

> <VwInt>
-32.480585

> <Eintl>
8.681659

> <Dsolv>
12.788493

> <SolEl>
7.193665

> <mfScore>
-110.692312

> <RecConf>
1

> <molLogP>
2.782992

$$$$
Z103007144
  MOLSOFT 11211612053D

 51 53  0  0  1  0  0  0  0  0999 V2000
  -37.3732    7.8374   65.7020 H   0  0  0
  -36.5563    7.6467   65.1965 O   0  0  0
  -35.4295    7.9289   66.0368 C   0  0  2
  -34.5295    7.6990   65.4564 H   0  0  0
  -35.4911    7.0208   67.2640 C   0  0  0
  -36.4569    7.1608   67.7637 H   0  0  0
  -34.6592    7.2526   67.9353 H   0  0  0
  -35.3678    5.6502   66.8676 O   0  0  0
  -35.2252    4.8062   67.9753 C   0  0  0
  -35.5117    5.1765   69.2872 C   0  0  0
  -35.8787    6.1619   69.5491 H   0  0  0
  -35.3490    4.2611   70.3061 C   0  0  0
  -35.5813    4.5425   71.3285 H   0  0  0
  -34.9008    2.9869   70.0302 C   0  0  0
  -34.7885    2.2757   70.8431 H   0  0  0
  -34.6006    2.6164   68.7302 C   0  0  0
  -34.1672    1.2198   68.4234 C   0  0  0
  -33.4558    1.2103   67.5926 H   0  0  0
  -35.0475    0.6328   68.1551 H   0  0  0
  -33.6700    0.7612   69.2832 H   0  0  0
  -34.7866    3.5267   67.7020 C   0  0  0
  -34.5855    3.2398   66.6738 H   0  0  0
  -35.4710    9.4197   66.4046 C   0  0  0
  -35.4661   10.0153   65.4860 H   0  0  0
  -36.4136    9.6412   66.9156 H   0  0  0
  -34.3822    9.8756   67.2624 N   0  0  0
  -34.3611    9.7497   68.6293 C   0  0  0
  -35.2107    9.2064   69.3206 O   0  0  0
  -33.0955   10.3997   69.1683 C   0  0  0
  -32.5334   10.8760   67.9220 N   0  0  0
  -31.6657   11.3968   67.8470 H   0  0  0
  -33.2961   10.5788   66.8420 C   0  0  0
  -33.0361   10.9308   65.7056 O   0  0  0
  -33.4796   11.5490   70.1013 C   0  0  0
  -33.9886   12.3435   69.5444 H   0  0  0
  -34.1846   11.1795   70.8524 H   0  0  0
  -32.2889   12.1409   70.8298 C   0  0  0
  -31.6538   12.6701   70.1147 H   0  0  0
  -32.6437   12.8871   71.5476 H   0  0  0
  -31.4847   11.0631   71.5498 C   0  0  0
  -32.1230   10.5953   72.3082 H   0  0  0
  -30.2995   11.6981   72.2598 C   0  0  0
  -29.7037   10.9406   72.7763 H   0  0  0
  -30.6347   12.4262   73.0044 H   0  0  0
  -29.6604   12.2237   71.5477 H   0  0  0
  -31.0213    9.9838   70.5691 C   0  0  0
  -30.3233   10.4109   69.8418 H   0  0  0
  -30.4696    9.2025   71.1021 H   0  0  0
  -32.1976    9.3535   69.8348 C   0  0  0
  -32.7874    8.7700   70.5507 H   0  0  0
  -31.8236    8.6359   69.0961 H   0  0  0
  2  1  1
  3  2  1
  3  4  1
  3  5  1
  3 23  1
  5  6  1
  5  7  1
  5  8  1
  8  9  1
  9 10  2
  9 21  1
 10 11  1
 10 12  1
 12 13  1
 12 14  2
 14 15  1
 14 16  1
 16 17  1
 16 21  2
 17 18  1
 17 19  1
 17 20  1
 21 22  1
 23 24  1
 23 25  1
 23 26  1
 26 27  1
 26 32  1
 27 28  2
 27 29  1
 29 30  1
 29 34  1
 29 49  1
 30 31  1
 30 32  1
 32 33  2
 34 35  1
 34 36  1
 34 37  1
 37 38  1
 37 39  1
 37 40  1
 40 41  1
 40 42  1
 40 46  1
 42 43  1
 42 44  1
 42 45  1
 46 47  1
 46 48  1
 46 49  1
 49 50  1
 49 51  1
M  ZZC   1 h1
M  ZZC   2 o4
M  ZZC   3 c9
M  ZZC   4 h26
M  ZZC   5 c8
M  ZZC   6 h17
M  ZZC   7 h18
M  ZZC   8 o1
M  ZZC   9 c6
M  ZZC  10 c5
M  ZZC  11 h20
M  ZZC  12 c4
M  ZZC  13 h21
M  ZZC  14 c3
M  ZZC  15 h22
M  ZZC  16 c2
M  ZZC  17 c1
M  ZZC  18 h23
M  ZZC  19 h24
M  ZZC  20 h25
M  ZZC  21 c7
M  ZZC  22 h19
M  ZZC  23 c10
M  ZZC  24 h15
M  ZZC  25 h16
M  ZZC  26 n1
M  ZZC  27 c11
M  ZZC  28 o2
M  ZZC  29 c12
M  ZZC  30 n2
M  ZZC  31 h2
M  ZZC  32 c19
M  ZZC  33 o3
M  ZZC  34 c13
M  ZZC  35 h13
M  ZZC  36 h14
M  ZZC  37 c14
M  ZZC  38 h11
M  ZZC  39 h12
M  ZZC  40 c15
M  ZZC  41 h10
M  ZZC  42 c18
M  ZZC  43 h3
M  ZZC  44 h4
M  ZZC  45 h5
M  ZZC  46 c16
M  ZZC  47 h8
M  ZZC  48 h9
M  ZZC  49 c17
M  ZZC  50 h6
M  ZZC  51 h7
M  ZZM   1 21
M  ZZI   1 20
M  ZZM   2 6
M  ZZI   2 60
M  ZZM   3 1
M  ZZI   3 113
M  ZZM   4 5
M  ZZI   4 1
M  ZZM   5 1
M  ZZI   5 112
M  ZZM   6 5
M  ZZI   6 1
M  ZZM   7 5
M  ZZI   7 1
M  ZZM   8 6
M  ZZI   8 59
M  ZZM   9 37
M  ZZI   9 124
M  ZZM  10 37
M  ZZI  10 125
M  ZZM  11 5
M  ZZI  11 1
M  ZZM  12 37
M  ZZI  12 125
M  ZZM  13 5
M  ZZI  13 1
M  ZZM  14 37
M  ZZI  14 125
M  ZZM  15 5
M  ZZI  15 1
M  ZZM  16 37
M  ZZI  16 124
M  ZZM  17 1
M  ZZI  17 111
M  ZZM  18 5
M  ZZI  18 1
M  ZZM  19 5
M  ZZI  19 1
M  ZZM  20 5
M  ZZI  20 1
M  ZZM  21 37
M  ZZI  21 125
M  ZZM  22 5
M  ZZI  22 1
M  ZZM  23 1
M  ZZI  23 112
M  ZZM  24 5
M  ZZI  24 1
M  ZZM  25 5
M  ZZI  25 1
M  ZZM  26 10
M  ZZI  26 192
M  ZZM  27 3
M  ZZI  27 121
M  ZZM  28 7
M  ZZI  28 81
M  ZZM  29 1
M  ZZI  29 110
M  ZZM  30 10
M  ZZI  30 211
M  ZZM  31 28
M  ZZI  31 11
M  ZZM  32 3
M  ZZI  32 121
M  ZZM  33 7
M  ZZI  33 81
M  ZZM  34 1
M  ZZI  34 112
M  ZZM  35 5
M  ZZI  35 1
M  ZZM  36 5
M  ZZI  36 1
M  ZZM  37 1
M  ZZI  37 112
M  ZZM  38 5
M  ZZI  38 1
M  ZZM  39 5
M  ZZI  39 1
M  ZZM  40 1
M  ZZI  40 113
M  ZZM  41 5
M  ZZI  41 1
M  ZZM  42 1
M  ZZI  42 111
M  ZZM  43 5
M  ZZI  43 1
M  ZZM  44 5
M  ZZI  44 1
M  ZZM  45 5
M  ZZI  45 1
M  ZZM  46 1
M  ZZI  46 112
M  ZZM  47 5
M  ZZI  47 1
M  ZZM  48 5
M  ZZI  48 1
M  ZZM  49 1
M  ZZI  49 112
M  ZZM  50 5
M  ZZI  50 1
M  ZZM  51 5
M  ZZI  51 1
M  END
> <NAME>
Z103007144

> <Score>
-26.197426

> <Natom>
51

> <Nflex>
5

> <Hbond>
-5.522318

> <Hphob>
-6.672802

> <VwInt>
-26.202408

> <Eintl>
6.584352

> <Dsolv>
15.197852

> <SolEl>
6.134595

> <mfScore>
-83.857659

> <RecConf>
1

> <molLogP>
2.500773

$$$$
Z1199004393
  MOLSOFT 11211612053D

 51 53  0  0  0  0  0  0  0  0999 V2000
  -37.2120    6.4083   70.3332 H   0  0  0
  -36.6183    5.9874   71.0589 N   0  3  0
  -36.5626    6.9429   72.2177 C   0  0  0
  -36.0246    7.8387   71.8998 H   0  0  0
  -36.0336    6.4611   73.0461 H   0  0  0
  -37.5880    7.1940   72.5074 H   0  0  0
  -37.2944    4.7080   71.4694 C   0  0  0
  -38.2622    4.9596   71.9137 H   0  0  0
  -36.6607    4.1848   72.1923 H   0  0  0
  -37.4558    4.0981   70.5812 H   0  0  0
  -35.2467    5.7927   70.4517 C   0  0  0
  -34.8290    6.7848   70.2521 H   0  0  0
  -34.6154    5.3476   71.2291 H   0  0  0
  -35.2097    4.9521   69.2011 C   0  0  0
  -35.5373    5.4348   67.9269 C   0  0  0
  -35.4898    4.5597   66.8488 C   0  0  0
  -35.7176    4.8858   65.8419 H   0  0  0
  -35.1095    3.2470   67.0089 C   0  0  0
  -35.0727    2.5928   66.1432 H   0  0  0
  -34.7679    2.7679   68.2556 C   0  0  0
  -34.3607    1.3377   68.4285 C   0  0  0
  -35.1863    0.6564   68.2032 H   0  0  0
  -34.0477    1.1531   69.4605 H   0  0  0
  -33.5348    1.1111   67.7501 H   0  0  0
  -34.8325    3.6209   69.3378 C   0  0  0
  -34.5757    3.2309   70.3191 H   0  0  0
  -35.8400    6.8096   67.7272 N   0  0  0
  -35.6962    7.4461   68.4993 H   0  0  0
  -36.2084    7.3702   66.5080 C   0  0  0
  -36.5698    6.7510   65.5172 O   0  0  0
  -36.0645    8.8786   66.4780 C   0  0  0
  -36.6013    9.2740   65.6089 H   0  0  0
  -36.5316    9.3037   67.3695 H   0  0  0
  -34.6193    9.2229   66.4169 C   0  0  0
  -33.8832    9.9235   67.3562 C   0  0  0
  -34.2934   10.6088   68.6044 C   0  0  0
  -33.4516   11.1243   69.0768 H   0  0  0
  -34.6999    9.8901   69.3222 H   0  0  0
  -35.0630   11.3546   68.3904 H   0  0  0
  -32.5718    9.8831   66.9643 N   0  0  0
  -31.8019   10.3155   67.4631 H   0  0  0
  -32.4422    9.1686   65.8030 C   0  0  0
  -33.7155    8.8216   65.3893 C   0  0  0
  -33.8663    8.1536   64.1795 C   0  0  0
  -34.8435    7.8672   63.8065 H   0  0  0
  -32.7456    7.8631   63.4359 C   0  0  0
  -32.8578    7.3625   62.4804 H   0  0  0
  -31.4868    8.1753   63.8945 C   0  0  0
  -30.6200    7.9096   63.2973 H   0  0  0
  -31.3075    8.8119   65.1027 C   0  0  0
  -30.3106    9.0318   65.4691 H   0  0  0
  2  1  1
  2  3  1
  2  7  1
  2 11  1
  3  4  1
  3  5  1
  3  6  1
  7  8  1
  7  9  1
  7 10  1
 11 12  1
 11 13  1
 11 14  1
 14 15  1
 14 25  2
 15 16  2
 15 27  1
 16 17  1
 16 18  1
 18 19  1
 18 20  2
 20 21  1
 20 25  1
 21 22  1
 21 23  1
 21 24  1
 25 26  1
 27 28  1
 27 29  1
 29 30  2
 29 31  1
 31 32  1
 31 33  1
 31 34  1
 34 35  2
 34 43  1
 35 36  1
 35 40  1
 36 37  1
 36 38  1
 36 39  1
 40 41  1
 40 42  1
 42 43  2
 42 50  1
 43 44  1
 44 45  1
 44 46  2
 46 47  1
 46 48  1
 48 49  1
 48 50  2
 50 51  1
M  ZZC   1 h1
M  ZZC   2 n1
M  ZZC   3 c10
M  ZZC   4 h12
M  ZZC   5 h13
M  ZZC   6 h14
M  ZZC   7 c9
M  ZZC   8 h15
M  ZZC   9 h16
M  ZZC  10 h17
M  ZZC  11 c8
M  ZZC  12 h18
M  ZZC  13 h19
M  ZZC  14 c6
M  ZZC  15 c5
M  ZZC  16 c4
M  ZZC  17 h21
M  ZZC  18 c3
M  ZZC  19 h22
M  ZZC  20 c2
M  ZZC  21 c1
M  ZZC  22 h23
M  ZZC  23 h24
M  ZZC  24 h25
M  ZZC  25 c7
M  ZZC  26 h20
M  ZZC  27 n2
M  ZZC  28 h11
M  ZZC  29 c11
M  ZZC  30 o1
M  ZZC  31 c12
M  ZZC  32 h10
M  ZZC  33 h9
M  ZZC  34 c13
M  ZZC  35 c14
M  ZZC  36 c21
M  ZZC  37 h2
M  ZZC  38 h3
M  ZZC  39 h4
M  ZZC  40 n3
M  ZZC  41 h26
M  ZZC  42 c15
M  ZZC  43 c16
M  ZZC  44 c17
M  ZZC  45 h8
M  ZZC  46 c18
M  ZZC  47 h7
M  ZZC  48 c19
M  ZZC  49 h6
M  ZZC  50 c20
M  ZZC  51 h5
M  ZZM   1 36
M  ZZI   1 17
M  ZZM   2 34
M  ZZI   2 231
M  ZZM   3 1
M  ZZI   3 111
M  ZZM   4 5
M  ZZI   4 1
M  ZZM   5 5
M  ZZI   5 1
M  ZZM   6 5
M  ZZI   6 1
M  ZZM   7 1
M  ZZI   7 111
M  ZZM   8 5
M  ZZI   8 1
M  ZZM   9 5
M  ZZI   9 1
M  ZZM  10 5
M  ZZI  10 1
M  ZZM  11 1
M  ZZI  11 112
M  ZZM  12 5
M  ZZI  12 1
M  ZZM  13 5
M  ZZI  13 1
M  ZZM  14 37
M  ZZI  14 124
M  ZZM  15 37
M  ZZI  15 124
M  ZZM  16 37
M  ZZI  16 125
M  ZZM  17 5
M  ZZI  17 1
M  ZZM  18 37
M  ZZI  18 125
M  ZZM  19 5
M  ZZI  19 1
M  ZZM  20 37
M  ZZI  20 124
M  ZZM  21 1
M  ZZI  21 111
M  ZZM  22 5
M  ZZI  22 1
M  ZZM  23 5
M  ZZI  23 1
M  ZZM  24 5
M  ZZI  24 1
M  ZZM  25 37
M  ZZI  25 125
M  ZZM  26 5
M  ZZI  26 1
M  ZZM  27 10
M  ZZI  27 191
M  ZZM  28 28
M  ZZI  28 11
M  ZZM  29 3
M  ZZI  29 121
M  ZZM  30 7
M  ZZI  30 81
M  ZZM  31 1
M  ZZI  31 112
M  ZZM  32 5
M  ZZI  32 1
M  ZZM  33 5
M  ZZI  33 1
M  ZZM  34 64
M  ZZI  34 105
M  ZZM  35 63
M  ZZI  35 104
M  ZZM  36 1
M  ZZI  36 111
M  ZZM  37 5
M  ZZI  37 1
M  ZZM  38 5
M  ZZI  38 1
M  ZZM  39 5
M  ZZI  39 1
M  ZZM  40 39
M  ZZI  40 215
M  ZZM  41 23
M  ZZI  41 10
M  ZZM  42 63
M  ZZI  42 104
M  ZZM  43 64
M  ZZI  43 105
M  ZZM  44 37
M  ZZI  44 125
M  ZZM  45 5
M  ZZI  45 1
M  ZZM  46 37
M  ZZI  46 125
M  ZZM  47 5
M  ZZI  47 1
M  ZZM  48 37
M  ZZI  48 125
M  ZZM  49 5
M  ZZI  49 1
M  ZZM  50 37
M  ZZI  50 125
M  ZZM  51 5
M  ZZI  51 1
M  CHG  1   2   1
M  END
> <NAME>
Z1199004393

> <Score>
-26.098238

> <Natom>
51

> <Nflex>
4

> <Hbond>
-2.029119

> <Hphob>
-7.515344

> <VwInt>
-29.041375

> <Eintl>
7.743297

> <Dsolv>
9.052924

> <SolEl>
5.943024

> <mfScore>
-110.894361

> <RecConf>
1

> <molLogP>
2.49406

$$$$
Z131357580
  MOLSOFT 11211612053D

 51 54  0  0  0  0  0  0  0  0999 V2000
  -35.3777    1.1420   70.4769 F   0  0  0
  -34.3180    1.7327   69.8617 C   0  0  0
  -33.6243    0.7207   69.2748 F   0  0  0
  -33.5238    2.2036   70.8615 F   0  0  0
  -34.7328    2.8036   68.8965 C   0  0  0
  -34.3914    2.7290   67.5559 C   0  0  0
  -33.7848    1.9077   67.1843 H   0  0  0
  -34.8516    3.6712   66.6614 C   0  0  0
  -34.6042    3.5544   65.6131 H   0  0  0
  -35.6682    4.7111   67.0773 C   0  0  0
  -35.9630    4.8115   68.4300 C   0  0  0
  -36.6095    5.6051   68.7930 H   0  0  0
  -35.4960    3.8756   69.3282 C   0  0  0
  -35.7706    3.9671   70.3756 H   0  0  0
  -36.3139    5.6300   66.0675 C   0  0  0
  -37.3526    5.7793   66.3771 H   0  0  0
  -36.3893    5.0814   65.1251 H   0  0  0
  -35.7301    6.9675   65.8170 N   0  0  0
  -34.4722    6.9501   65.0400 C   0  0  0
  -34.6195    6.4408   64.0865 H   0  0  0
  -33.6961    6.4130   65.5842 H   0  0  0
  -33.9903    8.3688   64.7437 C   0  0  0
  -34.7038    8.8940   64.0989 H   0  0  0
  -33.0315    8.3379   64.2169 H   0  0  0
  -33.8699    9.1266   65.9791 N   0  0  0
  -35.1034    9.1816   66.7541 C   0  0  0
  -34.9654    9.7113   67.6975 H   0  0  0
  -35.8459    9.7308   66.1642 H   0  0  0
  -35.5920    7.7694   67.0509 C   0  0  0
  -36.5547    7.8327   67.5628 H   0  0  0
  -34.8804    7.2977   67.7377 H   0  0  0
  -32.6027    9.4876   66.4331 C   0  0  0
  -31.5639    9.2182   65.8476 O   0  0  0
  -32.4760   10.1845   67.7367 C   0  0  0
  -33.1169   11.3844   68.0087 C   0  0  0
  -33.8747   12.0028   67.0365 O   0  0  0
  -34.4796   12.6183   67.4906 H   0  0  0
  -32.9811   11.9940   69.2402 C   0  0  0
  -33.4904   12.9304   69.4451 H   0  0  0
  -32.1476   11.4283   70.1926 C   0  0  0
  -31.9714   12.0454   71.4206 C   0  0  0
  -32.5050   12.9586   71.6643 H   0  0  0
  -31.1033   11.5094   72.3479 C   0  0  0
  -30.9581   12.0090   73.2985 H   0  0  0
  -30.4211   10.3444   72.0689 C   0  0  0
  -29.7444    9.9228   72.8055 H   0  0  0
  -30.5998    9.7142   70.8545 C   0  0  0
  -30.0506    8.8006   70.6479 H   0  0  0
  -31.4606   10.2514   69.9091 C   0  0  0
  -31.6312    9.6259   68.6828 C   0  0  0
  -31.1005    8.7046   68.4578 H   0  0  0
  2  1  1
  2  3  1
  2  4  1
  2  5  1
  5  6  1
  5 13  2
  6  7  1
  6  8  2
  8  9  1
  8 10  1
 10 11  2
 10 15  1
 11 12  1
 11 13  1
 13 14  1
 15 16  1
 15 17  1
 15 18  1
 18 19  1
 18 29  1
 19 20  1
 19 21  1
 19 22  1
 22 23  1
 22 24  1
 22 25  1
 25 26  1
 25 32  1
 26 27  1
 26 28  1
 26 29  1
 29 30  1
 29 31  1
 32 33  2
 32 34  1
 34 35  1
 34 50  2
 35 36  1
 35 38  2
 36 37  1
 38 39  1
 38 40  1
 40 41  2
 40 49  1
 41 42  1
 41 43  1
 43 44  1
 43 45  2
 45 46  1
 45 47  1
 47 48  1
 47 49  2
 49 50  1
 50 51  1
M  ZZC   1 f1
M  ZZC   2 c23
M  ZZC   3 f2
M  ZZC   4 f3
M  ZZC   5 c20
M  ZZC   6 c19
M  ZZC   7 h4
M  ZZC   8 c18
M  ZZC   9 h5
M  ZZC  10 c17
M  ZZC  11 c22
M  ZZC  12 h2
M  ZZC  13 c21
M  ZZC  14 h3
M  ZZC  15 c16
M  ZZC  16 h6
M  ZZC  17 h7
M  ZZC  18 n2
M  ZZC  19 c13
M  ZZC  20 h12
M  ZZC  21 h13
M  ZZC  22 c12
M  ZZC  23 h14
M  ZZC  24 h15
M  ZZC  25 n1
M  ZZC  26 c15
M  ZZC  27 h8
M  ZZC  28 h9
M  ZZC  29 c14
M  ZZC  30 h10
M  ZZC  31 h11
M  ZZC  32 c11
M  ZZC  33 o1
M  ZZC  34 c7
M  ZZC  35 c6
M  ZZC  36 o2
M  ZZC  37 h1
M  ZZC  38 c5
M  ZZC  39 h18
M  ZZC  40 c4
M  ZZC  41 c3
M  ZZC  42 h19
M  ZZC  43 c2
M  ZZC  44 h20
M  ZZC  45 c1
M  ZZC  46 h21
M  ZZC  47 c10
M  ZZC  48 h16
M  ZZC  49 c9
M  ZZC  50 c8
M  ZZC  51 h17
M  ZZM   1 11
M  ZZI   1 90
M  ZZM   2 1
M  ZZI   2 110
M  ZZM   3 11
M  ZZI   3 90
M  ZZM   4 11
M  ZZI   4 90
M  ZZM   5 37
M  ZZI   5 124
M  ZZM   6 37
M  ZZI   6 125
M  ZZM   7 5
M  ZZI   7 1
M  ZZM   8 37
M  ZZI   8 125
M  ZZM   9 5
M  ZZI   9 1
M  ZZM  10 37
M  ZZI  10 124
M  ZZM  11 37
M  ZZI  11 125
M  ZZM  12 5
M  ZZI  12 1
M  ZZM  13 37
M  ZZI  13 125
M  ZZM  14 5
M  ZZI  14 1
M  ZZM  15 1
M  ZZI  15 112
M  ZZM  16 5
M  ZZI  16 1
M  ZZM  17 5
M  ZZI  17 1
M  ZZM  18 8
M  ZZI  18 216
M  ZZM  19 1
M  ZZI  19 112
M  ZZM  20 5
M  ZZI  20 1
M  ZZM  21 5
M  ZZI  21 1
M  ZZM  22 1
M  ZZI  22 112
M  ZZM  23 5
M  ZZI  23 1
M  ZZM  24 5
M  ZZI  24 1
M  ZZM  25 10
M  ZZI  25 192
M  ZZM  26 1
M  ZZI  26 112
M  ZZM  27 5
M  ZZI  27 1
M  ZZM  28 5
M  ZZI  28 1
M  ZZM  29 1
M  ZZI  29 112
M  ZZM  30 5
M  ZZI  30 1
M  ZZM  31 5
M  ZZI  31 1
M  ZZM  32 3
M  ZZI  32 121
M  ZZM  33 7
M  ZZI  33 81
M  ZZM  34 37
M  ZZI  34 124
M  ZZM  35 37
M  ZZI  35 124
M  ZZM  36 6
M  ZZI  36 62
M  ZZM  37 29
M  ZZI  37 27
M  ZZM  38 37
M  ZZI  38 125
M  ZZM  39 5
M  ZZI  39 1
M  ZZM  40 37
M  ZZI  40 124
M  ZZM  41 37
M  ZZI  41 125
M  ZZM  42 5
M  ZZI  42 1
M  ZZM  43 37
M  ZZI  43 125
M  ZZM  44 5
M  ZZI  44 1
M  ZZM  45 37
M  ZZI  45 125
M  ZZM  46 5
M  ZZI  46 1
M  ZZM  47 37
M  ZZI  47 125
M  ZZM  48 5
M  ZZI  48 1
M  ZZM  49 37
M  ZZI  49 124
M  ZZM  50 37
M  ZZI  50 125
M  ZZM  51 5
M  ZZI  51 1
M  END
> <NAME>
Z131357580

> <Score>
-25.987874

> <Natom>
51

> <Nflex>
4

> <Hbond>
-4.133158

> <Hphob>
-7.943619

> <VwInt>
-29.89142

> <Eintl>
7.952758

> <Dsolv>
12.441709

> <SolEl>
12.047544

> <mfScore>
-98.785367

> <RecConf>
1

> <molLogP>
4.922412

$$$$
Z435792588
  MOLSOFT 11211612053D

 51 54  0  0  0  0  0  0  0  0999 V2000
  -32.5764   11.3128   66.2407 O   0  0  0
  -32.4096   10.4612   67.1059 C   0  0  0
  -32.1593   10.9082   68.5005 C   0  0  0
  -31.2182   10.2841   69.3108 C   0  0  0
  -30.5847    9.4821   68.9479 H   0  0  0
  -31.0874   10.7093   70.6168 C   0  0  0
  -30.1874   10.1105   71.4102 F   0  0  0
  -31.8688   11.7237   71.1317 C   0  0  0
  -31.7468   12.0317   72.1649 H   0  0  0
  -32.8092   12.3328   70.3249 C   0  0  0
  -33.4502   13.1151   70.7162 H   0  0  0
  -32.9389   11.9274   69.0137 C   0  0  0
  -33.8791   12.4984   68.2504 F   0  0  0
  -32.4567    8.9602   66.8424 C   0  0  0
  -31.4320    8.5839   66.9306 H   0  0  0
  -33.3619    8.2629   67.8698 C   0  0  0
  -33.0659    8.4729   68.9000 H   0  0  0
  -33.2697    7.1796   67.7445 H   0  0  0
  -34.8141    8.6642   67.6720 C   0  0  0
  -34.9644    9.7415   67.7968 H   0  0  0
  -35.4297    8.1720   68.4226 H   0  0  0
  -35.2093    8.3118   66.3196 N   0  0  0
  -34.4424    8.9433   65.2546 C   0  0  0
  -34.7787    8.5883   64.2761 H   0  0  0
  -34.6509   10.0172   65.2916 H   0  0  0
  -32.9509    8.6643   65.4190 C   0  0  0
  -32.3837    9.2410   64.6809 H   0  0  0
  -32.7664    7.6059   65.2029 H   0  0  0
  -36.1402    7.3298   65.9981 C   0  0  0
  -36.3217    6.9638   64.8484 O   0  0  0
  -36.9369    6.7090   67.1263 C   0  0  0
  -37.8923    6.3660   66.7218 H   0  0  0
  -37.1848    7.4743   67.8554 H   0  0  0
  -36.2471    5.5516   67.7921 C   0  0  0
  -36.2650    5.4345   69.1807 C   0  0  0
  -36.7544    6.1910   69.7861 H   0  0  0
  -35.6744    4.3599   69.8172 C   0  0  0
  -35.6877    4.2762   70.8992 H   0  0  0
  -35.0924    3.3853   69.0369 C   0  0  0
  -34.4121    2.1449   69.4955 C   0  0  0
  -33.4084    2.3743   69.8633 H   0  0  0
  -34.9771    1.6199   70.2730 H   0  0  0
  -34.3693    1.3382   68.2025 C   0  0  0
  -35.2670    0.7115   68.1535 H   0  0  0
  -33.5039    0.6738   68.1542 H   0  0  0
  -34.3985    2.3324   67.0460 C   0  0  0
  -34.9555    1.9590   66.1845 H   0  0  0
  -33.3967    2.6027   66.7154 H   0  0  0
  -35.0790    3.4894   67.6780 C   0  0  0
  -35.6440    4.5619   67.0293 C   0  0  0
  -35.6311    4.6051   65.9443 H   0  0  0
  2  1  2
  2  3  1
  2 14  1
  3  4  2
  3 12  1
  4  5  1
  4  6  1
  6  7  1
  6  8  2
  8  9  1
  8 10  1
 10 11  1
 10 12  2
 12 13  1
 14 15  1
 14 16  1
 14 26  1
 16 17  1
 16 18  1
 16 19  1
 19 20  1
 19 21  1
 19 22  1
 22 23  1
 22 29  1
 23 24  1
 23 25  1
 23 26  1
 26 27  1
 26 28  1
 29 30  2
 29 31  1
 31 32  1
 31 33  1
 31 34  1
 34 35  1
 34 50  2
 35 36  1
 35 37  2
 37 38  1
 37 39  1
 39 40  1
 39 49  2
 40 41  1
 40 42  1
 40 43  1
 43 44  1
 43 45  1
 43 46  1
 46 47  1
 46 48  1
 46 49  1
 49 50  1
 50 51  1
M  ZZC   1 o2
M  ZZC   2 c14
M  ZZC   3 c15
M  ZZC   4 c16
M  ZZC   5 h9
M  ZZC   6 c17
M  ZZC   7 f2
M  ZZC   8 c18
M  ZZC   9 h8
M  ZZC  10 c19
M  ZZC  11 h7
M  ZZC  12 c20
M  ZZC  13 f1
M  ZZC  14 c11
M  ZZC  15 h14
M  ZZC  16 c10
M  ZZC  17 h15
M  ZZC  18 h16
M  ZZC  19 c9
M  ZZC  20 h17
M  ZZC  21 h18
M  ZZC  22 n1
M  ZZC  23 c13
M  ZZC  24 h10
M  ZZC  25 h11
M  ZZC  26 c12
M  ZZC  27 h12
M  ZZC  28 h13
M  ZZC  29 c8
M  ZZC  30 o1
M  ZZC  31 c7
M  ZZC  32 h19
M  ZZC  33 h20
M  ZZC  34 c6
M  ZZC  35 c1
M  ZZC  36 h23
M  ZZC  37 c2
M  ZZC  38 h22
M  ZZC  39 c3
M  ZZC  40 c23
M  ZZC  41 h1
M  ZZC  42 h2
M  ZZC  43 c22
M  ZZC  44 h3
M  ZZC  45 h4
M  ZZC  46 c21
M  ZZC  47 h5
M  ZZC  48 h6
M  ZZC  49 c4
M  ZZC  50 c5
M  ZZC  51 h21
M  ZZM   1 7
M  ZZI   1 80
M  ZZM   2 3
M  ZZI   2 122
M  ZZM   3 37
M  ZZI   3 124
M  ZZM   4 37
M  ZZI   4 125
M  ZZM   5 5
M  ZZI   5 1
M  ZZM   6 37
M  ZZI   6 124
M  ZZM   7 11
M  ZZI   7 90
M  ZZM   8 37
M  ZZI   8 125
M  ZZM   9 5
M  ZZI   9 1
M  ZZM  10 37
M  ZZI  10 125
M  ZZM  11 5
M  ZZI  11 1
M  ZZM  12 37
M  ZZI  12 124
M  ZZM  13 11
M  ZZI  13 90
M  ZZM  14 1
M  ZZI  14 113
M  ZZM  15 5
M  ZZI  15 1
M  ZZM  16 1
M  ZZI  16 112
M  ZZM  17 5
M  ZZI  17 1
M  ZZM  18 5
M  ZZI  18 1
M  ZZM  19 1
M  ZZI  19 112
M  ZZM  20 5
M  ZZI  20 1
M  ZZM  21 5
M  ZZI  21 1
M  ZZM  22 10
M  ZZI  22 192
M  ZZM  23 1
M  ZZI  23 112
M  ZZM  24 5
M  ZZI  24 1
M  ZZM  25 5
M  ZZI  25 1
M  ZZM  26 1
M  ZZI  26 112
M  ZZM  27 5
M  ZZI  27 1
M  ZZM  28 5
M  ZZI  28 1
M  ZZM  29 3
M  ZZI  29 121
M  ZZM  30 7
M  ZZI  30 81
M  ZZM  31 1
M  ZZI  31 112
M  ZZM  32 5
M  ZZI  32 1
M  ZZM  33 5
M  ZZI  33 1
M  ZZM  34 37
M  ZZI  34 124
M  ZZM  35 37
M  ZZI  35 125
M  ZZM  36 5
M  ZZI  36 1
M  ZZM  37 37
M  ZZI  37 125
M  ZZM  38 5
M  ZZI  38 1
M  ZZM  39 37
M  ZZI  39 124
M  ZZM  40 1
M  ZZI  40 112
M  ZZM  41 5
M  ZZI  41 1
M  ZZM  42 5
M  ZZI  42 1
M  ZZM  43 1
M  ZZI  43 112
M  ZZM  44 5
M  ZZI  44 1
M  ZZM  45 5
M  ZZI  45 1
M  ZZM  46 1
M  ZZI  46 112
M  ZZM  47 5
M  ZZI  47 1
M  ZZM  48 5
M  ZZI  48 1
M  ZZM  49 37
M  ZZI  49 124
M  ZZM  50 37
M  ZZI  50 125
M  ZZM  51 5
M  ZZI  51 1
M  END
> <NAME>
Z435792588

> <Score>
-25.982143

> <Natom>
51

> <Nflex>
4

> <Hbond>
-3.156032

> <Hphob>
-8.296745

> <VwInt>
-26.890496

> <Eintl>
4.654634

> <Dsolv>
10.474736

> <SolEl>
6.357395

> <mfScore>
-80.759268

> <RecConf>
1

> <molLogP>
4.472189

$$$$
Z333033172
  MOLSOFT 11211612053D

 51 54  0  0  0  0  0  0  0  0999 V2000
  -35.1985    3.0171   71.0182 H   0  0  0
  -34.9185    2.8523   69.9837 C   0  0  0
  -34.1560    1.7628   69.6131 C   0  0  0
  -33.8298    1.0600   70.3732 H   0  0  0
  -33.7998    1.5485   68.2969 C   0  0  0
  -33.1924    0.6890   68.0470 H   0  0  0
  -34.1928    2.4016   67.2870 C   0  0  0
  -33.9197    2.2314   66.2505 H   0  0  0
  -34.9490    3.4819   67.6805 C   0  0  0
  -35.3149    3.7278   68.9871 C   0  0  0
  -36.0643    4.8735   69.0778 N   0  0  0
  -36.1557    5.3260   67.8436 C   0  0  0
  -35.4955    4.5064   66.9702 N   0  0  0
  -35.4180    4.6457   65.9701 H   0  0  0
  -36.8656    6.5451   67.3854 C   0  0  0
  -37.4662    6.3148   66.5017 H   0  0  0
  -37.5482    6.9086   68.1556 H   0  0  0
  -35.8817    7.5705   67.0611 N   0  0  0
  -35.3419    8.3566   68.1657 C   0  0  0
  -34.2643    8.2066   68.2400 H   0  0  0
  -35.5481    9.4169   67.9923 H   0  0  0
  -35.7924    8.0518   69.1126 H   0  0  0
  -35.4409    7.6601   65.7429 C   0  0  0
  -35.9227    6.9834   64.8457 O   0  0  0
  -34.3055    8.6212   65.4644 C   0  0  0
  -34.3538    8.9206   64.4122 H   0  0  0
  -34.4756    9.5288   66.0424 H   0  0  0
  -32.9502    7.9680   65.7672 C   0  0  0
  -33.0208    7.3343   66.6545 H   0  0  0
  -32.6986    7.2963   64.9399 H   0  0  0
  -31.8127    8.9715   65.9566 C   0  0  0
  -30.8611    8.4341   66.0210 H   0  0  0
  -31.7804    9.6435   65.0960 H   0  0  0
  -31.9653    9.7645   67.1686 N   0  0  0
  -31.4794    9.4213   68.4127 C   0  0  0
  -30.7868    8.4775   68.7606 O   0  0  0
  -31.9549   10.4471   69.3331 C   0  0  0
  -32.6559   11.3656   68.6211 C   0  0  0
  -32.6212   10.9718   67.2168 C   0  0  0
  -33.0974   11.6275   66.3036 O   0  0  0
  -33.2699   12.4375   69.2227 C   0  0  0
  -33.8423   13.1606   68.6521 H   0  0  0
  -33.1289   12.5358   70.5970 C   0  0  0
  -33.6120   13.3570   71.1156 H   0  0  0
  -32.3939   11.6089   71.3352 C   0  0  0
  -32.2737   11.7822   72.8179 C   0  0  0
  -31.6798   10.9777   73.2613 H   0  0  0
  -31.7846   12.7334   73.0505 H   0  0  0
  -33.2662   11.7660   73.2772 H   0  0  0
  -31.7876   10.5329   70.6974 C   0  0  0
  -31.2151    9.7863   71.2405 H   0  0  0
  2  1  1
  2  3  2
  2 10  1
  3  4  1
  3  5  1
  5  6  1
  5  7  2
  7  8  1
  7  9  1
  9 10  2
  9 13  1
 10 11  1
 11 12  2
 12 13  1
 12 15  1
 13 14  1
 15 16  1
 15 17  1
 15 18  1
 18 19  1
 18 23  1
 19 20  1
 19 21  1
 19 22  1
 23 24  2
 23 25  1
 25 26  1
 25 27  1
 25 28  1
 28 29  1
 28 30  1
 28 31  1
 31 32  1
 31 33  1
 31 34  1
 34 35  1
 34 39  1
 35 36  2
 35 37  1
 37 38  1
 37 50  2
 38 39  1
 38 41  2
 39 40  2
 41 42  1
 41 43  1
 43 44  1
 43 45  2
 45 46  1
 45 50  1
 46 47  1
 46 48  1
 46 49  1
 50 51  1
M  ZZC   1 h1
M  ZZC   2 c21
M  ZZC   3 c20
M  ZZC   4 h2
M  ZZC   5 c19
M  ZZC   6 h3
M  ZZC   7 c18
M  ZZC   8 h4
M  ZZC   9 c17
M  ZZC  10 c22
M  ZZC  11 n4
M  ZZC  12 c16
M  ZZC  13 n3
M  ZZC  14 h22
M  ZZC  15 c15
M  ZZC  16 h5
M  ZZC  17 h6
M  ZZC  18 n2
M  ZZC  19 c14
M  ZZC  20 h7
M  ZZC  21 h8
M  ZZC  22 h9
M  ZZC  23 c13
M  ZZC  24 o3
M  ZZC  25 c12
M  ZZC  26 h10
M  ZZC  27 h11
M  ZZC  28 c11
M  ZZC  29 h12
M  ZZC  30 h13
M  ZZC  31 c10
M  ZZC  32 h14
M  ZZC  33 h15
M  ZZC  34 n1
M  ZZC  35 c8
M  ZZC  36 o1
M  ZZC  37 c6
M  ZZC  38 c5
M  ZZC  39 c9
M  ZZC  40 o2
M  ZZC  41 c4
M  ZZC  42 h17
M  ZZC  43 c3
M  ZZC  44 h18
M  ZZC  45 c2
M  ZZC  46 c1
M  ZZC  47 h19
M  ZZC  48 h20
M  ZZC  49 h21
M  ZZC  50 c7
M  ZZC  51 h16
M  ZZM   1 5
M  ZZI   1 1
M  ZZM   2 37
M  ZZI   2 125
M  ZZM   3 37
M  ZZI   3 125
M  ZZM   4 5
M  ZZI   4 1
M  ZZM   5 37
M  ZZI   5 125
M  ZZM   6 5
M  ZZI   6 1
M  ZZM   7 37
M  ZZI   7 125
M  ZZM   8 5
M  ZZI   8 1
M  ZZM   9 63
M  ZZI   9 104
M  ZZM  10 64
M  ZZI  10 105
M  ZZM  11 66
M  ZZI  11 222
M  ZZM  12 63
M  ZZI  12 104
M  ZZM  13 39
M  ZZI  13 215
M  ZZM  14 23
M  ZZI  14 10
M  ZZM  15 1
M  ZZI  15 112
M  ZZM  16 5
M  ZZI  16 1
M  ZZM  17 5
M  ZZI  17 1
M  ZZM  18 10
M  ZZI  18 192
M  ZZM  19 1
M  ZZI  19 111
M  ZZM  20 5
M  ZZI  20 1
M  ZZM  21 5
M  ZZI  21 1
M  ZZM  22 5
M  ZZI  22 1
M  ZZM  23 3
M  ZZI  23 121
M  ZZM  24 7
M  ZZI  24 81
M  ZZM  25 1
M  ZZI  25 112
M  ZZM  26 5
M  ZZI  26 1
M  ZZM  27 5
M  ZZI  27 1
M  ZZM  28 1
M  ZZI  28 112
M  ZZM  29 5
M  ZZI  29 1
M  ZZM  30 5
M  ZZI  30 1
M  ZZM  31 1
M  ZZI  31 112
M  ZZM  32 5
M  ZZI  32 1
M  ZZM  33 5
M  ZZI  33 1
M  ZZM  34 10
M  ZZI  34 192
M  ZZM  35 3
M  ZZI  35 121
M  ZZM  36 7
M  ZZI  36 81
M  ZZM  37 37
M  ZZI  37 124
M  ZZM  38 37
M  ZZI  38 124
M  ZZM  39 3
M  ZZI  39 121
M  ZZM  40 7
M  ZZI  40 81
M  ZZM  41 37
M  ZZI  41 125
M  ZZM  42 5
M  ZZI  42 1
M  ZZM  43 37
M  ZZI  43 125
M  ZZM  44 5
M  ZZI  44 1
M  ZZM  45 37
M  ZZI  45 124
M  ZZM  46 1
M  ZZI  46 111
M  ZZM  47 5
M  ZZI  47 1
M  ZZM  48 5
M  ZZI  48 1
M  ZZM  49 5
M  ZZI  49 1
M  ZZM  50 37
M  ZZI  50 125
M  ZZM  51 5
M  ZZI  51 1
M  END
> <NAME>
Z333033172

> <Score>
-25.288663

> <Natom>
51

> <Nflex>
7

> <Hbond>
-3.753109

> <Hphob>
-6.616405

> <VwInt>
-30.205033

> <Eintl>
7.374356

> <Dsolv>
13.607113

> <SolEl>
6.726353

> <mfScore>
-86.650664

> <RecConf>
1

> <molLogP>
3.103958

$$$$
Z109669866
  MOLSOFT 11211612053D

 51 54  0  0  1  0  0  0  0  0999 V2000
  -31.1179    8.7987   69.7643 H   0  0  0
  -31.0859    9.8904   69.8323 C   0  0  0
  -30.2312   10.1597   70.4608 H   0  0  0
  -30.8919   10.2508   68.8175 H   0  0  0
  -32.3961   10.4567   70.3923 C   0  0  2
  -32.7656    9.8609   71.7411 C   0  0  0
  -33.3970   10.5494   72.3152 H   0  0  0
  -31.8996    9.6078   72.3619 H   0  0  0
  -33.5858    8.6385   71.3633 C   0  0  0
  -32.9592    7.7673   71.1449 H   0  0  0
  -34.3232    8.3863   72.1318 H   0  0  0
  -34.2577    9.0945   70.0995 C   0  0  0
  -35.2862    8.6283   69.6385 O   0  0  0
  -33.5079   10.1133   69.5658 N   0  0  0
  -33.9216   11.0878   68.5505 C   0  0  1
  -34.9760   11.3174   68.7372 H   0  0  0
  -33.0689   12.3484   68.7119 C   0  0  0
  -33.6667   13.2551   68.5975 H   0  0  0
  -32.2449   12.3977   67.9947 H   0  0  0
  -32.3784   12.2537   70.3843 S   0  0  0
  -33.8468   10.5222   67.1294 C   0  0  0
  -33.3151   11.1428   66.2162 O   0  0  0
  -34.5813    9.3520   66.9987 N   0  0  0
  -35.0741    8.9948   67.8102 H   0  0  0
  -34.7168    8.6679   65.8006 C   0  0  0
  -34.1289    8.8476   64.5693 C   0  0  0
  -33.3915    9.5864   64.2922 H   0  0  0
  -34.6880    7.8524   63.7455 C   0  0  0
  -34.4783    7.6544   62.7031 H   0  0  0
  -35.6049    7.1153   64.3808 N   0  0  0
  -35.5527    7.5755   65.6518 N   0  0  0
  -36.4359    6.9633   66.6496 C   0  0  0
  -36.6980    7.7330   67.3774 H   0  0  0
  -37.3605    6.6682   66.1479 H   0  0  0
  -35.8213    5.7562   67.3145 C   0  0  0
  -35.8613    5.6325   68.6929 C   0  0  0
  -36.3177    6.4047   69.3028 H   0  0  0
  -35.3343    4.5260   69.3200 C   0  0  0
  -35.3715    4.4679   70.4036 H   0  0  0
  -34.7755    3.4941   68.5856 C   0  0  0
  -34.2143    2.2856   69.2808 C   0  0  0
  -33.5960    1.7005   68.5917 H   0  0  0
  -33.5533    2.6158   70.0874 H   0  0  0
  -35.3099    1.4107   69.8595 C   0  0  0
  -34.8650    0.6259   70.4701 H   0  0  0
  -35.9068    0.9451   69.0690 H   0  0  0
  -35.9873    1.9789   70.5037 H   0  0  0
  -34.7631    3.5936   67.2052 C   0  0  0
  -34.3504    2.7918   66.6003 H   0  0  0
  -35.2798    4.7095   66.5800 C   0  0  0
  -35.2654    4.7459   65.4965 H   0  0  0
  2  1  1
  2  3  1
  2  4  1
  5  2  1
  5  6  1
  5 14  1
  5 20  1
  6  7  1
  6  8  1
  6  9  1
  9 10  1
  9 11  1
  9 12  1
 12 13  2
 12 14  1
 15 14  1
 15 16  1
 15 17  1
 15 21  1
 17 18  1
 17 19  1
 17 20  1
 21 22  2
 21 23  1
 23 24  1
 23 25  1
 25 26  2
 25 31  1
 26 27  1
 26 28  1
 28 29  1
 28 30  2
 30 31  1
 31 32  1
 32 33  1
 32 34  1
 32 35  1
 35 36  2
 35 50  1
 36 37  1
 36 38  1
 38 39  1
 38 40  2
 40 41  1
 40 48  1
 41 42  1
 41 43  1
 41 44  1
 44 45  1
 44 46  1
 44 47  1
 48 49  1
 48 50  2
 50 51  1
M  ZZC   1 h1
M  ZZC   2 c20
M  ZZC   3 h2
M  ZZC   4 h3
M  ZZC   5 c16
M  ZZC   6 c19
M  ZZC   7 h4
M  ZZC   8 h5
M  ZZC   9 c18
M  ZZC  10 h6
M  ZZC  11 h7
M  ZZC  12 c17
M  ZZC  13 o2
M  ZZC  14 n4
M  ZZC  15 c14
M  ZZC  16 h24
M  ZZC  17 c15
M  ZZC  18 h8
M  ZZC  19 h9
M  ZZC  20 s1
M  ZZC  21 c13
M  ZZC  22 o1
M  ZZC  23 n3
M  ZZC  24 h10
M  ZZC  25 c10
M  ZZC  26 c11
M  ZZC  27 h12
M  ZZC  28 c12
M  ZZC  29 h11
M  ZZC  30 n2
M  ZZC  31 n1
M  ZZC  32 c9
M  ZZC  33 h13
M  ZZC  34 h14
M  ZZC  35 c6
M  ZZC  36 c5
M  ZZC  37 h17
M  ZZC  38 c4
M  ZZC  39 h18
M  ZZC  40 c3
M  ZZC  41 c2
M  ZZC  42 h19
M  ZZC  43 h20
M  ZZC  44 c1
M  ZZC  45 h21
M  ZZC  46 h22
M  ZZC  47 h23
M  ZZC  48 c8
M  ZZC  49 h15
M  ZZC  50 c7
M  ZZC  51 h16
M  ZZM   1 5
M  ZZI   1 1
M  ZZM   2 1
M  ZZI   2 111
M  ZZM   3 5
M  ZZI   3 1
M  ZZM   4 5
M  ZZI   4 1
M  ZZM   5 1
M  ZZI   5 110
M  ZZM   6 1
M  ZZI   6 112
M  ZZM   7 5
M  ZZI   7 1
M  ZZM   8 5
M  ZZI   8 1
M  ZZM   9 1
M  ZZI   9 112
M  ZZM  10 5
M  ZZI  10 1
M  ZZM  11 5
M  ZZI  11 1
M  ZZM  12 3
M  ZZI  12 121
M  ZZM  13 7
M  ZZI  13 81
M  ZZM  14 10
M  ZZI  14 192
M  ZZM  15 1
M  ZZI  15 113
M  ZZM  16 5
M  ZZI  16 1
M  ZZM  17 1
M  ZZI  17 112
M  ZZM  18 5
M  ZZI  18 1
M  ZZM  19 5
M  ZZI  19 1
M  ZZM  20 15
M  ZZI  20 253
M  ZZM  21 3
M  ZZI  21 121
M  ZZM  22 7
M  ZZI  22 81
M  ZZM  23 10
M  ZZI  23 191
M  ZZM  24 28
M  ZZI  24 11
M  ZZM  25 63
M  ZZI  25 104
M  ZZM  26 64
M  ZZI  26 105
M  ZZM  27 5
M  ZZI  27 1
M  ZZM  28 64
M  ZZI  28 105
M  ZZM  29 5
M  ZZI  29 1
M  ZZM  30 65
M  ZZI  30 207
M  ZZM  31 39
M  ZZI  31 215
M  ZZM  32 1
M  ZZI  32 112
M  ZZM  33 5
M  ZZI  33 1
M  ZZM  34 5
M  ZZI  34 1
M  ZZM  35 37
M  ZZI  35 124
M  ZZM  36 37
M  ZZI  36 125
M  ZZM  37 5
M  ZZI  37 1
M  ZZM  38 37
M  ZZI  38 125
M  ZZM  39 5
M  ZZI  39 1
M  ZZM  40 37
M  ZZI  40 124
M  ZZM  41 1
M  ZZI  41 112
M  ZZM  42 5
M  ZZI  42 1
M  ZZM  43 5
M  ZZI  43 1
M  ZZM  44 1
M  ZZI  44 111
M  ZZM  45 5
M  ZZI  45 1
M  ZZM  46 5
M  ZZI  46 1
M  ZZM  47 5
M  ZZI  47 1
M  ZZM  48 37
M  ZZI  48 125
M  ZZM  49 5
M  ZZI  49 1
M  ZZM  50 37
M  ZZI  50 125
M  ZZM  51 5
M  ZZI  51 1
M  END
> <NAME>
Z109669866

> <Score>
-25.14584

> <Natom>
51

> <Nflex>
4

> <Hbond>
-2.878355

> <Hphob>
-6.763614

> <VwInt>
-29.719534

> <Eintl>
7.611264

> <Dsolv>
10.998936

> <SolEl>
8.69447

> <mfScore>
-105.070963

> <RecConf>
1

> <molLogP>
3.635658

$$$$
Z19629696
  MOLSOFT 11211612053D

 52 55  0  0  1  0  0  0  0  0999 V2000
  -30.9659    7.6572   70.1931 O   0  0  0
  -30.7127    8.4504   69.2444 C   0  0  0
  -29.5974    8.8046   68.7752 O   0  5  0
  -31.8925    9.1181   68.6238 C   0  0  0
  -32.3769   10.3608   69.2042 C   0  0  0
  -33.3509   11.0266   68.5231 C   0  0  0
  -33.8201   12.2273   69.0139 C   0  0  0
  -34.5752   12.7861   68.4800 H   0  0  0
  -33.3363   12.7004   70.2157 C   0  0  0
  -33.7462   13.6087   70.6364 H   0  0  0
  -32.3563   12.0225   70.9061 C   0  0  0
  -31.9795   12.4139   71.8460 H   0  0  0
  -31.8559   10.8476   70.3941 C   0  0  0
  -31.0741   10.3263   70.9386 H   0  0  0
  -33.9026   10.4333   67.2977 C   0  0  0
  -34.7534   11.0611   66.6876 O   0  0  0
  -33.4304    9.1817   66.9212 N   0  0  0
  -32.4002    8.5365   67.5727 N   0  0  0
  -34.0437    8.5128   65.7601 C   0  0  1
  -34.6021    9.2632   65.1906 H   0  0  0
  -33.0173    7.8684   64.8349 C   0  0  0
  -33.5026    7.4244   63.9598 H   0  0  0
  -32.4711    7.0704   65.3397 H   0  0  0
  -32.2869    8.6041   64.4845 H   0  0  0
  -35.0661    7.4760   66.2253 C   0  0  0
  -35.9471    7.0679   65.4786 O   0  0  0
  -34.8189    6.9626   67.4842 N   0  0  0
  -33.9608    7.2593   67.9422 H   0  0  0
  -35.6635    5.9582   68.1205 C   0  0  0
  -36.6077    5.9529   67.5634 H   0  0  0
  -35.0691    4.5678   67.9937 C   0  0  0
  -34.8857    4.0016   66.7393 C   0  0  0
  -35.1619    4.5468   65.8425 H   0  0  0
  -34.3459    2.7421   66.6039 C   0  0  0
  -34.1932    2.3385   65.6131 H   0  0  0
  -33.9986    2.0027   67.7130 C   0  0  0
  -33.5708    1.0120   67.6071 H   0  0  0
  -34.1904    2.5353   68.9649 C   0  0  0
  -33.9213    1.9594   69.8444 H   0  0  0
  -34.7122    3.8035   69.1039 C   0  0  0
  -34.8340    4.1813   70.1128 H   0  0  0
  -36.0118    6.3232   69.5511 C   0  0  0
  -35.1295    6.9951   70.3961 C   0  0  0
  -34.1523    7.3161   70.0509 H   0  0  0
  -35.4628    7.2430   71.7122 C   0  0  0
  -34.7625    7.7669   72.3550 H   0  0  0
  -36.6776    6.8278   72.2159 C   0  0  0
  -36.9374    7.0313   73.2496 H   0  0  0
  -37.5641    6.1631   71.3975 C   0  0  0
  -38.5246    5.8392   71.7863 H   0  0  0
  -37.2328    5.9145   70.0812 C   0  0  0
  -37.9465    5.3852   69.4589 H   0  0  0
  2  1  2
  2  3  1
  2  4  1
  4  5  1
  4 18  2
  5  6  1
  5 13  2
  6  7  2
  6 15  1
  7  8  1
  7  9  1
  9 10  1
  9 11  2
 11 12  1
 11 13  1
 13 14  1
 15 16  2
 15 17  1
 17 18  1
 19 17  1
 19 20  1
 19 21  1
 19 25  1
 21 22  1
 21 23  1
 21 24  1
 25 26  2
 25 27  1
 27 28  1
 27 29  1
 29 30  1
 29 31  1
 29 42  1
 31 32  1
 31 40  2
 32 33  1
 32 34  2
 34 35  1
 34 36  1
 36 37  1
 36 38  2
 38 39  1
 38 40  1
 40 41  1
 42 43  2
 42 51  1
 43 44  1
 43 45  1
 45 46  1
 45 47  2
 47 48  1
 47 49  1
 49 50  1
 49 51  2
 51 52  1
M  ZZC   1 o3
M  ZZC   2 c25
M  ZZC   3 o4
M  ZZC   4 c24
M  ZZC   5 c23
M  ZZC   6 c18
M  ZZC   7 c19
M  ZZC   8 h4
M  ZZC   9 c20
M  ZZC  10 h3
M  ZZC  11 c21
M  ZZC  12 h2
M  ZZC  13 c22
M  ZZC  14 h1
M  ZZC  15 c17
M  ZZC  16 o2
M  ZZC  17 n2
M  ZZC  18 n3
M  ZZC  19 c2
M  ZZC  20 h20
M  ZZC  21 c1
M  ZZC  22 h17
M  ZZC  23 h18
M  ZZC  24 h19
M  ZZC  25 c3
M  ZZC  26 o1
M  ZZC  27 n1
M  ZZC  28 h16
M  ZZC  29 c4
M  ZZC  30 h15
M  ZZC  31 c5
M  ZZC  32 c10
M  ZZC  33 h10
M  ZZC  34 c9
M  ZZC  35 h11
M  ZZC  36 c8
M  ZZC  37 h12
M  ZZC  38 c7
M  ZZC  39 h13
M  ZZC  40 c6
M  ZZC  41 h14
M  ZZC  42 c11
M  ZZC  43 c12
M  ZZC  44 h9
M  ZZC  45 c13
M  ZZC  46 h8
M  ZZC  47 c14
M  ZZC  48 h7
M  ZZC  49 c15
M  ZZC  50 h6
M  ZZC  51 c16
M  ZZC  52 h5
M  ZZM   1 32
M  ZZI   1 71
M  ZZM   2 41
M  ZZI   2 127
M  ZZM   3 32
M  ZZI   3 71
M  ZZM   4 3
M  ZZI   4 121
M  ZZM   5 37
M  ZZI   5 124
M  ZZM   6 37
M  ZZI   6 124
M  ZZM   7 37
M  ZZI   7 125
M  ZZM   8 5
M  ZZI   8 1
M  ZZM   9 37
M  ZZI   9 125
M  ZZM  10 5
M  ZZI  10 1
M  ZZM  11 37
M  ZZI  11 125
M  ZZM  12 5
M  ZZI  12 1
M  ZZM  13 37
M  ZZI  13 125
M  ZZM  14 5
M  ZZI  14 1
M  ZZM  15 3
M  ZZI  15 121
M  ZZM  16 7
M  ZZI  16 81
M  ZZM  17 10
M  ZZI  17 192
M  ZZM  18 9
M  ZZI  18 220
M  ZZM  19 1
M  ZZI  19 113
M  ZZM  20 5
M  ZZI  20 1
M  ZZM  21 1
M  ZZI  21 111
M  ZZM  22 5
M  ZZI  22 1
M  ZZM  23 5
M  ZZI  23 1
M  ZZM  24 5
M  ZZI  24 1
M  ZZM  25 3
M  ZZI  25 121
M  ZZM  26 7
M  ZZI  26 81
M  ZZM  27 10
M  ZZI  27 211
M  ZZM  28 28
M  ZZI  28 11
M  ZZM  29 1
M  ZZI  29 113
M  ZZM  30 5
M  ZZI  30 1
M  ZZM  31 37
M  ZZI  31 124
M  ZZM  32 37
M  ZZI  32 125
M  ZZM  33 5
M  ZZI  33 1
M  ZZM  34 37
M  ZZI  34 125
M  ZZM  35 5
M  ZZI  35 1
M  ZZM  36 37
M  ZZI  36 125
M  ZZM  37 5
M  ZZI  37 1
M  ZZM  38 37
M  ZZI  38 125
M  ZZM  39 5
M  ZZI  39 1
M  ZZM  40 37
M  ZZI  40 125
M  ZZM  41 5
M  ZZI  41 1
M  ZZM  42 37
M  ZZI  42 124
M  ZZM  43 37
M  ZZI  43 125
M  ZZM  44 5
M  ZZI  44 1
M  ZZM  45 37
M  ZZI  45 125
M  ZZM  46 5
M  ZZI  46 1
M  ZZM  47 37
M  ZZI  47 125
M  ZZM  48 5
M  ZZI  48 1
M  ZZM  49 37
M  ZZI  49 125
M  ZZM  50 5
M  ZZI  50 1
M  ZZM  51 37
M  ZZI  51 125
M  ZZM  52 5
M  ZZI  52 1
M  CHG  1   3  -1
M  END
> <NAME>
Z19629696

> <Score>
-28.894127

> <Natom>
52

> <Nflex>
6

> <Hbond>
-4.009319

> <Hphob>
-7.365675

> <VwInt>
-29.616162

> <Eintl>
8.350469

> <Dsolv>
14.747515

> <SolEl>
1.72724

> <mfScore>
-84.596634

> <RecConf>
1

> <molLogP>
3.371669

$$$$
Z194626330
  MOLSOFT 11211612053D

 52 55  0  0  1  0  0  0  0  0999 V2000
  -35.9353    6.7514   64.8092 O   0  0  0
  -35.1965    7.2117   65.6698 C   0  0  0
  -35.1508    6.6722   67.0088 C   0  0  0
  -35.3036    5.3619   67.4345 C   0  0  0
  -35.5138    4.1844   66.5504 C   0  0  0
  -34.5860    3.9193   66.0360 H   0  0  0
  -35.8458    3.3049   67.1038 H   0  0  0
  -36.2780    4.3871   65.7963 H   0  0  0
  -35.2062    5.3561   68.8683 C   0  0  0
  -35.2932    4.1913   69.7420 C   0  0  0
  -35.0015    3.0717   69.3426 O   0  0  0
  -35.7449    4.3700   71.1664 C   0  0  0
  -36.0299    3.3963   71.5764 H   0  0  0
  -34.9332    4.7776   71.7749 H   0  0  0
  -36.6279    5.0154   71.2070 H   0  0  0
  -34.9846    6.6723   69.2565 C   0  0  0
  -34.7676    7.3213   70.5759 C   0  0  0
  -34.5459    8.3869   70.4626 H   0  0  0
  -35.6580    7.2400   71.2050 H   0  0  0
  -33.9213    6.8679   71.0995 H   0  0  0
  -34.9397    7.4328   68.1240 N   0  0  0
  -34.7767    8.4326   68.1132 H   0  0  0
  -34.2727    8.3747   65.3376 C   0  0  2
  -34.8771    9.1334   64.8268 H   0  0  0
  -33.1484    7.8711   64.4366 C   0  0  0
  -32.4758    8.6817   64.1434 H   0  0  0
  -32.5372    7.1314   64.9596 H   0  0  0
  -33.5410    7.4045   63.5278 H   0  0  0
  -33.7295    8.9250   66.5524 O   0  0  0
  -33.2998   10.2192   66.4401 C   0  0  0
  -33.2708   10.8938   65.4220 O   0  0  0
  -32.9683   10.7414   67.7791 C   0  0  0
  -33.6159   11.9122   68.1704 C   0  0  0
  -34.3090   12.4061   67.4970 H   0  0  0
  -33.4030   12.4602   69.4229 C   0  0  0
  -33.9049   13.3694   69.7209 H   0  0  0
  -32.5356   11.8197   70.2791 C   0  0  0
  -31.9012   10.6953   69.8610 C   0  0  0
  -32.0545   10.1132   68.6283 C   0  0  0
  -31.2558    9.0024   68.3766 C   0  0  0
  -31.2826    8.4998   67.4149 H   0  0  0
  -30.3839    8.5369   69.3570 C   0  0  0
  -29.7380    7.6923   69.1443 H   0  0  0
  -30.3055    9.1311   70.6060 C   0  0  0
  -29.6537    8.7374   71.3765 H   0  0  0
  -31.0742   10.2476   70.8391 C   0  0  0
  -31.1378   11.1034   72.0640 C   0  0  0
  -31.4957   10.5301   72.9261 H   0  0  0
  -30.1546   11.5265   72.2983 H   0  0  0
  -32.1351   12.2021   71.6699 C   0  0  0
  -33.0003   12.2180   72.3414 H   0  0  0
  -31.6552   13.1861   71.6846 H   0  0  0
  2  1  2
  2  3  1
 23  2  1
  3  4  2
  3 21  1
  4  5  1
  4  9  1
  5  6  1
  5  7  1
  5  8  1
  9 10  1
  9 16  2
 10 11  2
 10 12  1
 12 13  1
 12 14  1
 12 15  1
 16 17  1
 16 21  1
 17 18  1
 17 19  1
 17 20  1
 21 22  1
 23 24  1
 23 25  1
 23 29  1
 25 26  1
 25 27  1
 25 28  1
 29 30  1
 30 31  2
 30 32  1
 32 33  2
 32 39  1
 33 34  1
 33 35  1
 35 36  1
 35 37  2
 37 38  1
 37 50  1
 38 39  2
 38 46  1
 39 40  1
 40 41  1
 40 42  2
 42 43  1
 42 44  1
 44 45  1
 44 46  2
 46 47  1
 47 48  1
 47 49  1
 47 50  1
 50 51  1
 50 52  1
M  ZZC   1 o1
M  ZZC   2 c6
M  ZZC   3 c5
M  ZZC   4 c2
M  ZZC   5 c1
M  ZZC   6 h19
M  ZZC   7 h20
M  ZZC   8 h21
M  ZZC   9 c3
M  ZZC  10 c23
M  ZZC  11 o4
M  ZZC  12 c24
M  ZZC  13 h1
M  ZZC  14 h2
M  ZZC  15 h3
M  ZZC  16 c4
M  ZZC  17 c22
M  ZZC  18 h4
M  ZZC  19 h5
M  ZZC  20 h6
M  ZZC  21 n1
M  ZZC  22 h23
M  ZZC  23 c7
M  ZZC  24 h22
M  ZZC  25 c8
M  ZZC  26 h16
M  ZZC  27 h17
M  ZZC  28 h18
M  ZZC  29 o2
M  ZZC  30 c9
M  ZZC  31 o3
M  ZZC  32 c10
M  ZZC  33 c11
M  ZZC  34 h15
M  ZZC  35 c12
M  ZZC  36 h14
M  ZZC  37 c13
M  ZZC  38 c14
M  ZZC  39 c15
M  ZZC  40 c16
M  ZZC  41 h13
M  ZZC  42 c17
M  ZZC  43 h12
M  ZZC  44 c18
M  ZZC  45 h11
M  ZZC  46 c19
M  ZZC  47 c20
M  ZZC  48 h10
M  ZZC  49 h9
M  ZZC  50 c21
M  ZZC  51 h7
M  ZZC  52 h8
M  ZZM   1 7
M  ZZI   1 80
M  ZZM   2 3
M  ZZI   2 122
M  ZZM   3 63
M  ZZI   3 104
M  ZZM   4 64
M  ZZI   4 105
M  ZZM   5 1
M  ZZI   5 111
M  ZZM   6 5
M  ZZI   6 1
M  ZZM   7 5
M  ZZI   7 1
M  ZZM   8 5
M  ZZI   8 1
M  ZZM   9 64
M  ZZI   9 105
M  ZZM  10 3
M  ZZI  10 122
M  ZZM  11 7
M  ZZI  11 80
M  ZZM  12 1
M  ZZI  12 111
M  ZZM  13 5
M  ZZI  13 1
M  ZZM  14 5
M  ZZI  14 1
M  ZZM  15 5
M  ZZI  15 1
M  ZZM  16 63
M  ZZI  16 104
M  ZZM  17 1
M  ZZI  17 111
M  ZZM  18 5
M  ZZI  18 1
M  ZZM  19 5
M  ZZI  19 1
M  ZZM  20 5
M  ZZI  20 1
M  ZZM  21 39
M  ZZI  21 215
M  ZZM  22 23
M  ZZI  22 10
M  ZZM  23 1
M  ZZI  23 113
M  ZZM  24 5
M  ZZI  24 1
M  ZZM  25 1
M  ZZI  25 111
M  ZZM  26 5
M  ZZI  26 1
M  ZZM  27 5
M  ZZI  27 1
M  ZZM  28 5
M  ZZI  28 1
M  ZZM  29 6
M  ZZI  29 61
M  ZZM  30 3
M  ZZI  30 123
M  ZZM  31 7
M  ZZI  31 82
M  ZZM  32 37
M  ZZI  32 124
M  ZZM  33 37
M  ZZI  33 125
M  ZZM  34 5
M  ZZI  34 1
M  ZZM  35 37
M  ZZI  35 125
M  ZZM  36 5
M  ZZI  36 1
M  ZZM  37 37
M  ZZI  37 124
M  ZZM  38 37
M  ZZI  38 124
M  ZZM  39 37
M  ZZI  39 124
M  ZZM  40 37
M  ZZI  40 125
M  ZZM  41 5
M  ZZI  41 1
M  ZZM  42 37
M  ZZI  42 125
M  ZZM  43 5
M  ZZI  43 1
M  ZZM  44 37
M  ZZI  44 125
M  ZZM  45 5
M  ZZI  45 1
M  ZZM  46 37
M  ZZI  46 124
M  ZZM  47 1
M  ZZI  47 112
M  ZZM  48 5
M  ZZI  48 1
M  ZZM  49 5
M  ZZI  49 1
M  ZZM  50 1
M  ZZI  50 112
M  ZZM  51 5
M  ZZI  51 1
M  ZZM  52 5
M  ZZI  52 1
M  END
> <NAME>
Z194626330

> <Score>
-26.120119

> <Natom>
52

> <Nflex>
2

> <Hbond>
-2.8953

> <Hphob>
-7.780023

> <VwInt>
-29.245367

> <Eintl>
7.336131

> <Dsolv>
12.63655

> <SolEl>
7.553881

> <mfScore>
-95.270614

> <RecConf>
1

> <molLogP>
3.94994

$$$$
Z224890876
  MOLSOFT 11211612053D

 52 54  0  0  0  0  0  0  0  0999 V2000
  -35.4883    4.2157   69.7764 F   0  0  0
  -35.9105    5.1553   70.6370 C   0  0  0
  -35.0742    6.2046   70.9492 C   0  0  0
  -34.1036    6.2510   70.4797 H   0  0  0
  -35.5065    7.1903   71.8201 C   0  0  0
  -36.7836    7.0962   72.3568 C   0  0  0
  -37.1496    7.8550   73.0405 H   0  0  0
  -37.6135    6.0369   72.0412 C   0  0  0
  -38.6106    5.9787   72.4682 H   0  0  0
  -37.1728    5.0565   71.1787 C   0  0  0
  -37.8112    4.2184   70.9256 H   0  0  0
  -34.7173    8.3165   72.1627 N   0  0  0
  -35.2066    9.0509   72.6641 H   0  0  0
  -33.3609    8.4730   71.8897 C   0  0  0
  -32.6277    7.6078   71.4260 O   0  0  0
  -32.8294    9.8530   72.2751 C   0  0  0
  -33.6601   10.5559   72.3860 H   0  0  0
  -32.3663    9.7540   73.2613 H   0  0  0
  -31.8570   10.3566   71.2796 N   0  0  0
  -30.5681   10.8429   71.7942 C   0  0  0
  -29.7966   10.7581   71.0226 H   0  0  0
  -30.2364   10.2230   72.6332 H   0  0  0
  -30.6755   12.2956   72.2311 C   0  0  0
  -30.9224   12.9437   71.3853 H   0  0  0
  -29.7275   12.6413   72.6503 H   0  0  0
  -31.4535   12.4271   72.9889 H   0  0  0
  -32.2254   10.5871   69.9491 C   0  0  0
  -31.7834    9.8745   68.8967 C   0  0  0
  -30.9247    8.8283   69.1409 N   0  0  0
  -30.7867    8.1145   68.4356 H   0  0  0
  -30.7870    8.5832   70.1206 H   0  0  0
  -32.2165   10.1600   67.6188 N   0  0  0
  -33.0547   11.2116   67.3308 C   0  0  0
  -33.3558   11.5363   66.1955 O   0  0  0
  -33.5398   11.8930   68.3952 N   0  0  0
  -34.2088   12.6287   68.2080 H   0  0  0
  -33.1912   11.6917   69.6914 C   0  0  0
  -33.6403   12.3835   70.5912 O   0  0  0
  -31.8326    9.3177   66.4854 C   0  0  0
  -30.8612    8.8432   66.6494 H   0  0  0
  -31.7043    9.9747   65.6225 H   0  0  0
  -32.8738    8.2846   66.1205 C   0  0  0
  -33.7160    7.7059   67.0662 C   0  0  0
  -33.6560    7.9801   68.1140 H   0  0  0
  -34.6544    6.7653   66.6964 C   0  0  0
  -35.3056    6.3238   67.4445 H   0  0  0
  -34.7550    6.3729   65.3808 C   0  0  0
  -35.4806    5.6162   65.1052 H   0  0  0
  -33.9236    6.9304   64.4309 C   0  0  0
  -33.9982    6.6289   63.3912 H   0  0  0
  -32.9866    7.8727   64.7990 C   0  0  0
  -32.3399    8.2920   64.0332 H   0  0  0
  2  1  1
  2  3  2
  2 10  1
  3  4  1
  3  5  1
  5  6  2
  5 12  1
  6  7  1
  6  8  1
  8  9  1
  8 10  2
 10 11  1
 12 13  1
 12 14  1
 14 15  2
 14 16  1
 16 17  1
 16 18  1
 16 19  1
 19 20  1
 19 27  1
 20 21  1
 20 22  1
 20 23  1
 23 24  1
 23 25  1
 23 26  1
 27 28  2
 27 37  1
 28 29  1
 28 32  1
 29 30  1
 29 31  1
 32 33  1
 32 39  1
 33 34  2
 33 35  1
 35 36  1
 35 37  1
 37 38  2
 39 40  1
 39 41  1
 39 42  1
 42 43  2
 42 51  1
 43 44  1
 43 45  1
 45 46  1
 45 47  2
 47 48  1
 47 49  1
 49 50  1
 49 51  2
 51 52  1
M  ZZC   1 f1
M  ZZC   2 c9
M  ZZC   3 c10
M  ZZC   4 h10
M  ZZC   5 c5
M  ZZC   6 c6
M  ZZC   7 h13
M  ZZC   8 c7
M  ZZC   9 h12
M  ZZC  10 c8
M  ZZC  11 h11
M  ZZC  12 n2
M  ZZC  13 h14
M  ZZC  14 c4
M  ZZC  15 o1
M  ZZC  16 c3
M  ZZC  17 h15
M  ZZC  18 h16
M  ZZC  19 n1
M  ZZC  20 c2
M  ZZC  21 h17
M  ZZC  22 h18
M  ZZC  23 c1
M  ZZC  24 h19
M  ZZC  25 h20
M  ZZC  26 h21
M  ZZC  27 c11
M  ZZC  28 c12
M  ZZC  29 n5
M  ZZC  30 h1
M  ZZC  31 h2
M  ZZC  32 n3
M  ZZC  33 c13
M  ZZC  34 o2
M  ZZC  35 n4
M  ZZC  36 h22
M  ZZC  37 c14
M  ZZC  38 o3
M  ZZC  39 c15
M  ZZC  40 h8
M  ZZC  41 h9
M  ZZC  42 c16
M  ZZC  43 c17
M  ZZC  44 h7
M  ZZC  45 c18
M  ZZC  46 h6
M  ZZC  47 c19
M  ZZC  48 h5
M  ZZC  49 c20
M  ZZC  50 h4
M  ZZC  51 c21
M  ZZC  52 h3
M  ZZM   1 11
M  ZZI   1 90
M  ZZM   2 37
M  ZZI   2 124
M  ZZM   3 37
M  ZZI   3 125
M  ZZM   4 5
M  ZZI   4 1
M  ZZM   5 37
M  ZZI   5 124
M  ZZM   6 37
M  ZZI   6 125
M  ZZM   7 5
M  ZZI   7 1
M  ZZM   8 37
M  ZZI   8 125
M  ZZM   9 5
M  ZZI   9 1
M  ZZM  10 37
M  ZZI  10 125
M  ZZM  11 5
M  ZZI  11 1
M  ZZM  12 10
M  ZZI  12 191
M  ZZM  13 28
M  ZZI  13 11
M  ZZM  14 3
M  ZZI  14 121
M  ZZM  15 7
M  ZZI  15 81
M  ZZM  16 1
M  ZZI  16 112
M  ZZM  17 5
M  ZZI  17 1
M  ZZM  18 5
M  ZZI  18 1
M  ZZM  19 40
M  ZZI  19 193
M  ZZM  20 1
M  ZZI  20 112
M  ZZM  21 5
M  ZZI  21 1
M  ZZM  22 5
M  ZZI  22 1
M  ZZM  23 1
M  ZZI  23 111
M  ZZM  24 5
M  ZZI  24 1
M  ZZM  25 5
M  ZZI  25 1
M  ZZM  26 5
M  ZZI  26 1
M  ZZM  27 2
M  ZZI  27 120
M  ZZM  28 2
M  ZZI  28 120
M  ZZM  29 40
M  ZZI  29 224
M  ZZM  30 28
M  ZZI  30 11
M  ZZM  31 28
M  ZZI  31 11
M  ZZM  32 10
M  ZZI  32 192
M  ZZM  33 3
M  ZZI  33 121
M  ZZM  34 7
M  ZZI  34 81
M  ZZM  35 10
M  ZZI  35 191
M  ZZM  36 28
M  ZZI  36 11
M  ZZM  37 3
M  ZZI  37 121
M  ZZM  38 7
M  ZZI  38 81
M  ZZM  39 1
M  ZZI  39 112
M  ZZM  40 5
M  ZZI  40 1
M  ZZM  41 5
M  ZZI  41 1
M  ZZM  42 37
M  ZZI  42 124
M  ZZM  43 37
M  ZZI  43 125
M  ZZM  44 5
M  ZZI  44 1
M  ZZM  45 37
M  ZZI  45 125
M  ZZM  46 5
M  ZZI  46 1
M  ZZM  47 37
M  ZZI  47 125
M  ZZM  48 5
M  ZZI  48 1
M  ZZM  49 37
M  ZZI  49 125
M  ZZM  50 5
M  ZZI  50 1
M  ZZM  51 37
M  ZZI  51 125
M  ZZM  52 5
M  ZZI  52 1
M  END
> <NAME>
Z224890876

> <Score>
-25.829172

> <Natom>
52

> <Nflex>
5

> <Hbond>
-5.147888

> <Hphob>
-6.194837

> <VwInt>
-28.033037

> <Eintl>
7.236616

> <Dsolv>
14.763528

> <SolEl>
8.039267

> <mfScore>
-112.368366

> <RecConf>
1

> <molLogP>
2.239731

$$$$
Z25068792
  MOLSOFT 11211612053D

 52 55  0  0  0  0  0  0  0  0999 V2000
  -35.5512    7.3881   64.7946 O   0  0  0
  -35.3662    7.9402   65.8714 C   0  0  0
  -34.4806    9.0721   66.0567 C   0  0  0
  -33.4178    9.5146   65.2246 C   0  0  0
  -32.9037    8.8688   63.9927 C   0  0  0
  -32.4563    7.8992   64.2310 H   0  0  0
  -32.1367    9.4777   63.5065 H   0  0  0
  -33.7098    8.6988   63.2739 H   0  0  0
  -32.8488   10.6382   65.6888 N   0  0  0
  -33.4565   10.8399   66.8778 N   0  0  0
  -34.4905    9.9646   67.1127 C   0  0  0
  -35.3693   10.0536   68.2998 C   0  0  0
  -35.0351    9.3718   69.0874 H   0  0  0
  -36.3893    9.7937   68.0189 H   0  0  0
  -35.4040   11.0646   68.7061 H   0  0  0
  -33.0110   11.9457   67.7287 C   0  0  0
  -33.8516   12.6430   67.8040 H   0  0  0
  -32.1947   12.4612   67.2175 H   0  0  0
  -32.5471   11.4775   69.0861 C   0  0  0
  -31.6748   10.4038   69.2281 C   0  0  0
  -31.3181    9.8614   68.3573 H   0  0  0
  -31.2318   10.0202   70.4776 C   0  0  0
  -30.5480    9.1832   70.5754 H   0  0  0
  -31.6493   10.7038   71.6007 C   0  0  0
  -31.2984   10.4023   72.5825 H   0  0  0
  -32.5091   11.7747   71.4721 C   0  0  0
  -32.8370   12.3183   72.3528 H   0  0  0
  -32.9496   12.1608   70.2234 C   0  0  0
  -33.6179   13.0114   70.1412 H   0  0  0
  -35.9516    7.5566   67.0456 O   0  0  0
  -36.8076    6.4144   66.9518 C   0  0  0
  -37.5828    6.4992   67.7165 H   0  0  0
  -37.3304    6.3869   65.9963 H   0  0  0
  -36.0040    5.1400   67.1306 C   0  0  0
  -35.6287    4.5115   66.1508 O   0  0  0
  -35.7539    4.7759   68.4531 N   0  0  0
  -36.1723    5.5014   69.6464 C   0  0  0
  -37.2670    5.5395   69.6786 H   0  0  0
  -35.8035    6.5321   69.6050 H   0  0  0
  -35.6181    4.7467   70.8524 C   0  0  0
  -36.4187    4.4395   71.5341 H   0  0  0
  -34.8857    5.3513   71.3981 H   0  0  0
  -34.9666    3.5723   70.2084 C   0  0  0
  -35.0562    3.6238   68.8485 C   0  0  0
  -34.5087    2.6344   68.0523 C   0  0  0
  -34.5769    2.6595   66.9703 H   0  0  0
  -33.8625    1.5837   68.6771 C   0  0  0
  -33.4243    0.7928   68.0777 H   0  0  0
  -33.7701    1.5332   70.0589 C   0  0  0
  -33.2571    0.7059   70.5356 H   0  0  0
  -34.3225    2.5294   70.8413 C   0  0  0
  -34.2481    2.4903   71.9235 H   0  0  0
  2  1  2
  2  3  1
  2 30  1
  3  4  1
  3 11  2
  4  5  1
  4  9  2
  5  6  1
  5  7  1
  5  8  1
  9 10  1
 10 11  1
 10 16  1
 11 12  1
 12 13  1
 12 14  1
 12 15  1
 16 17  1
 16 18  1
 16 19  1
 19 20  1
 19 28  2
 20 21  1
 20 22  2
 22 23  1
 22 24  1
 24 25  1
 24 26  2
 26 27  1
 26 28  1
 28 29  1
 30 31  1
 31 32  1
 31 33  1
 31 34  1
 34 35  2
 34 36  1
 36 37  1
 36 44  1
 37 38  1
 37 39  1
 37 40  1
 40 41  1
 40 42  1
 40 43  1
 43 44  2
 43 51  1
 44 45  1
 45 46  1
 45 47  2
 47 48  1
 47 49  1
 49 50  1
 49 51  2
 51 52  1
M  ZZC   1 o1
M  ZZC   2 c13
M  ZZC   3 c3
M  ZZC   4 c2
M  ZZC   5 c1
M  ZZC   6 h21
M  ZZC   7 h22
M  ZZC   8 h23
M  ZZC   9 n2
M  ZZC  10 n1
M  ZZC  11 c4
M  ZZC  12 c12
M  ZZC  13 h11
M  ZZC  14 h12
M  ZZC  15 h13
M  ZZC  16 c5
M  ZZC  17 h19
M  ZZC  18 h20
M  ZZC  19 c6
M  ZZC  20 c11
M  ZZC  21 h14
M  ZZC  22 c10
M  ZZC  23 h15
M  ZZC  24 c9
M  ZZC  25 h16
M  ZZC  26 c8
M  ZZC  27 h17
M  ZZC  28 c7
M  ZZC  29 h18
M  ZZC  30 o2
M  ZZC  31 c14
M  ZZC  32 h10
M  ZZC  33 h9
M  ZZC  34 c15
M  ZZC  35 o3
M  ZZC  36 n3
M  ZZC  37 c16
M  ZZC  38 h7
M  ZZC  39 h8
M  ZZC  40 c17
M  ZZC  41 h5
M  ZZC  42 h6
M  ZZC  43 c18
M  ZZC  44 c19
M  ZZC  45 c20
M  ZZC  46 h4
M  ZZC  47 c21
M  ZZC  48 h3
M  ZZC  49 c22
M  ZZC  50 h2
M  ZZC  51 c23
M  ZZC  52 h1
M  ZZM   1 7
M  ZZI   1 82
M  ZZM   2 3
M  ZZI   2 123
M  ZZM   3 64
M  ZZI   3 105
M  ZZM   4 64
M  ZZI   4 105
M  ZZM   5 1
M  ZZI   5 111
M  ZZM   6 5
M  ZZI   6 1
M  ZZM   7 5
M  ZZI   7 1
M  ZZM   8 5
M  ZZI   8 1
M  ZZM   9 65
M  ZZI   9 207
M  ZZM  10 39
M  ZZI  10 215
M  ZZM  11 63
M  ZZI  11 104
M  ZZM  12 1
M  ZZI  12 111
M  ZZM  13 5
M  ZZI  13 1
M  ZZM  14 5
M  ZZI  14 1
M  ZZM  15 5
M  ZZI  15 1
M  ZZM  16 1
M  ZZI  16 112
M  ZZM  17 5
M  ZZI  17 1
M  ZZM  18 5
M  ZZI  18 1
M  ZZM  19 37
M  ZZI  19 124
M  ZZM  20 37
M  ZZI  20 125
M  ZZM  21 5
M  ZZI  21 1
M  ZZM  22 37
M  ZZI  22 125
M  ZZM  23 5
M  ZZI  23 1
M  ZZM  24 37
M  ZZI  24 125
M  ZZM  25 5
M  ZZI  25 1
M  ZZM  26 37
M  ZZI  26 125
M  ZZM  27 5
M  ZZI  27 1
M  ZZM  28 37
M  ZZI  28 125
M  ZZM  29 5
M  ZZI  29 1
M  ZZM  30 6
M  ZZI  30 65
M  ZZM  31 1
M  ZZI  31 112
M  ZZM  32 5
M  ZZI  32 1
M  ZZM  33 5
M  ZZI  33 1
M  ZZM  34 3
M  ZZI  34 121
M  ZZM  35 7
M  ZZI  35 81
M  ZZM  36 10
M  ZZI  36 192
M  ZZM  37 1
M  ZZI  37 112
M  ZZM  38 5
M  ZZI  38 1
M  ZZM  39 5
M  ZZI  39 1
M  ZZM  40 1
M  ZZI  40 112
M  ZZM  41 5
M  ZZI  41 1
M  ZZM  42 5
M  ZZI  42 1
M  ZZM  43 37
M  ZZI  43 124
M  ZZM  44 37
M  ZZI  44 124
M  ZZM  45 37
M  ZZI  45 125
M  ZZM  46 5
M  ZZI  46 1
M  ZZM  47 37
M  ZZI  47 125
M  ZZM  48 5
M  ZZI  48 1
M  ZZM  49 37
M  ZZI  49 125
M  ZZM  50 5
M  ZZI  50 1
M  ZZM  51 37
M  ZZI  51 125
M  ZZM  52 5
M  ZZI  52 1
M  END
> <NAME>
Z25068792

> <Score>
-25.443873

> <Natom>
52

> <Nflex>
5

> <Hbond>
-2.738527

> <Hphob>
-8.140163

> <VwInt>
-31.138803

> <Eintl>
5.733922

> <Dsolv>
12.616267

> <SolEl>
8.507747

> <mfScore>
-105.171278

> <RecConf>
1

> <molLogP>
2.963208

$$$$
Z1445346505
  MOLSOFT 11211612053D

 52 53  0  0  1  0  0  0  0  0999 V2000
  -35.9635    6.7837   64.3154 O   0  0  0
  -34.9093    7.0913   64.9327 C   0  0  0
  -33.7216    7.1314   64.5066 O   0  5  0
  -35.0987    7.4761   66.3943 C   0  0  2
  -34.1382    7.4080   66.9145 H   0  0  0
  -36.1593    6.6302   67.1136 C   0  0  0
  -36.5044    7.1610   68.0059 H   0  0  0
  -37.0537    6.4770   66.5003 H   0  0  0
  -35.6244    5.2870   67.5391 C   0  0  0
  -35.4340    4.2677   66.6188 C   0  0  0
  -35.6815    4.4206   65.5738 H   0  0  0
  -34.9327    3.0450   67.0106 C   0  0  0
  -34.7936    2.2669   66.2667 H   0  0  0
  -34.6182    2.8050   68.3362 C   0  0  0
  -34.1063    1.4615   68.7564 C   0  0  0
  -34.8927    0.7032   68.7012 H   0  0  0
  -33.7486    1.4971   69.7899 H   0  0  0
  -33.2847    1.1550   68.1028 H   0  0  0
  -34.8223    3.8130   69.2627 C   0  0  0
  -34.5965    3.6469   70.3113 H   0  0  0
  -35.3118    5.0418   68.8674 C   0  0  0
  -35.4517    5.8176   69.6136 H   0  0  0
  -35.5436    8.9276   66.2320 C   0  0  0
  -36.6351    9.0193   66.2592 H   0  0  0
  -35.2009    9.3639   65.2883 H   0  0  0
  -35.0245    9.7166   67.3250 N   0  0  0
  -35.3613    9.5149   68.2599 H   0  0  0
  -34.0575   10.6852   67.1358 C   0  0  0
  -33.6135   11.0183   66.0445 O   0  0  0
  -33.5973   11.3216   68.4320 C   0  0  2
  -34.4931   11.4288   69.0495 H   0  0  0
  -33.0806   12.7155   68.1270 C   0  0  0
  -32.1547   12.6761   67.5483 H   0  0  0
  -32.8788   13.2759   69.0442 H   0  0  0
  -33.8139   13.2687   67.5387 H   0  0  0
  -32.5874   10.5044   69.1823 C   0  0  0
  -31.6569    9.5185   68.7132 C   0  0  0
  -31.4046    9.0348   67.3342 C   0  0  0
  -32.1353    8.2731   67.0465 H   0  0  0
  -30.4172    8.5780   67.2449 H   0  0  0
  -31.4796    9.8506   66.6138 H   0  0  0
  -30.9334    8.9948   69.7114 N   0  0  0
  -31.3303    9.6865   70.7948 N   0  0  0
  -30.7044    9.3994   72.0791 C   0  0  0
  -31.3594    8.7196   72.6325 H   0  0  0
  -30.5629   10.3377   72.6233 H   0  0  0
  -29.7331    8.9314   71.8966 H   0  0  0
  -32.3331   10.5911   70.5388 C   0  0  0
  -32.9215   11.4533   71.5964 C   0  0  0
  -33.7708   12.0296   71.2217 H   0  0  0
  -32.1804   12.1674   71.9678 H   0  0  0
  -33.2767   10.8514   72.4378 H   0  0  0
  2  1  2
  2  3  1
  4  2  1
  4  5  1
  4  6  1
  4 23  1
  6  7  1
  6  8  1
  6  9  1
  9 10  2
  9 21  1
 10 11  1
 10 12  1
 12 13  1
 12 14  2
 14 15  1
 14 19  1
 15 16  1
 15 17  1
 15 18  1
 19 20  1
 19 21  2
 21 22  1
 23 24  1
 23 25  1
 23 26  1
 26 27  1
 26 28  1
 28 29  2
 30 28  1
 30 31  1
 30 32  1
 30 36  1
 32 33  1
 32 34  1
 32 35  1
 36 37  1
 36 48  2
 37 38  1
 37 42  2
 38 39  1
 38 40  1
 38 41  1
 42 43  1
 43 44  1
 43 48  1
 44 45  1
 44 46  1
 44 47  1
 48 49  1
 49 50  1
 49 51  1
 49 52  1
M  ZZC   1 o2
M  ZZC   2 c20
M  ZZC   3 o3
M  ZZC   4 c9
M  ZZC   5 h26
M  ZZC   6 c8
M  ZZC   7 h16
M  ZZC   8 h17
M  ZZC   9 c5
M  ZZC  10 c4
M  ZZC  11 h20
M  ZZC  12 c3
M  ZZC  13 h21
M  ZZC  14 c2
M  ZZC  15 c1
M  ZZC  16 h22
M  ZZC  17 h23
M  ZZC  18 h24
M  ZZC  19 c7
M  ZZC  20 h18
M  ZZC  21 c6
M  ZZC  22 h19
M  ZZC  23 c10
M  ZZC  24 h14
M  ZZC  25 h15
M  ZZC  26 n1
M  ZZC  27 h13
M  ZZC  28 c11
M  ZZC  29 o1
M  ZZC  30 c12
M  ZZC  31 h25
M  ZZC  32 c13
M  ZZC  33 h10
M  ZZC  34 h11
M  ZZC  35 h12
M  ZZC  36 c14
M  ZZC  37 c15
M  ZZC  38 c19
M  ZZC  39 h1
M  ZZC  40 h2
M  ZZC  41 h3
M  ZZC  42 n2
M  ZZC  43 n3
M  ZZC  44 c18
M  ZZC  45 h4
M  ZZC  46 h5
M  ZZC  47 h6
M  ZZC  48 c16
M  ZZC  49 c17
M  ZZC  50 h7
M  ZZC  51 h8
M  ZZC  52 h9
M  ZZM   1 32
M  ZZI   1 71
M  ZZM   2 41
M  ZZI   2 127
M  ZZM   3 32
M  ZZI   3 71
M  ZZM   4 1
M  ZZI   4 113
M  ZZM   5 5
M  ZZI   5 1
M  ZZM   6 1
M  ZZI   6 112
M  ZZM   7 5
M  ZZI   7 1
M  ZZM   8 5
M  ZZI   8 1
M  ZZM   9 37
M  ZZI   9 124
M  ZZM  10 37
M  ZZI  10 125
M  ZZM  11 5
M  ZZI  11 1
M  ZZM  12 37
M  ZZI  12 125
M  ZZM  13 5
M  ZZI  13 1
M  ZZM  14 37
M  ZZI  14 124
M  ZZM  15 1
M  ZZI  15 111
M  ZZM  16 5
M  ZZI  16 1
M  ZZM  17 5
M  ZZI  17 1
M  ZZM  18 5
M  ZZI  18 1
M  ZZM  19 37
M  ZZI  19 125
M  ZZM  20 5
M  ZZI  20 1
M  ZZM  21 37
M  ZZI  21 125
M  ZZM  22 5
M  ZZI  22 1
M  ZZM  23 1
M  ZZI  23 112
M  ZZM  24 5
M  ZZI  24 1
M  ZZM  25 5
M  ZZI  25 1
M  ZZM  26 10
M  ZZI  26 211
M  ZZM  27 28
M  ZZI  27 11
M  ZZM  28 3
M  ZZI  28 121
M  ZZM  29 7
M  ZZI  29 81
M  ZZM  30 1
M  ZZI  30 113
M  ZZM  31 5
M  ZZI  31 1
M  ZZM  32 1
M  ZZI  32 111
M  ZZM  33 5
M  ZZI  33 1
M  ZZM  34 5
M  ZZI  34 1
M  ZZM  35 5
M  ZZI  35 1
M  ZZM  36 64
M  ZZI  36 105
M  ZZM  37 64
M  ZZI  37 105
M  ZZM  38 1
M  ZZI  38 111
M  ZZM  39 5
M  ZZI  39 1
M  ZZM  40 5
M  ZZI  40 1
M  ZZM  41 5
M  ZZI  41 1
M  ZZM  42 65
M  ZZI  42 207
M  ZZM  43 39
M  ZZI  43 215
M  ZZM  44 1
M  ZZI  44 111
M  ZZM  45 5
M  ZZI  45 1
M  ZZM  46 5
M  ZZI  46 1
M  ZZM  47 5
M  ZZI  47 1
M  ZZM  48 63
M  ZZI  48 104
M  ZZM  49 1
M  ZZI  49 111
M  ZZM  50 5
M  ZZI  50 1
M  ZZM  51 5
M  ZZI  51 1
M  ZZM  52 5
M  ZZI  52 1
M  CHG  1   3  -1
M  END
> <NAME>
Z1445346505

> <Score>
-25.21425

> <Natom>
52

> <Nflex>
7

> <Hbond>
-3.665488

> <Hphob>
-6.449757

> <VwInt>
-29.831229

> <Eintl>
9.287338

> <Dsolv>
13.697898

> <SolEl>
5.66451

> <mfScore>
-85.863577

> <RecConf>
1

> <molLogP>
2.084379

$$$$
Z287372568
  MOLSOFT 11211612053D

 53 56  0  0  1  0  0  0  0  0999 V2000
  -37.5704    8.3646   65.8405 H   0  0  0
  -36.6486    8.0689   65.7229 O   0  0  0
  -36.1001    7.8677   67.0275 C   0  0  1
  -36.4031    8.7099   67.6562 H   0  0  0
  -36.6499    6.5724   67.6019 C   0  0  0
  -37.7415    6.6353   67.6673 H   0  0  0
  -36.4150    5.7457   66.9265 H   0  0  0
  -36.0892    6.3445   68.9046 O   0  0  0
  -36.6263    5.1620   69.5183 C   0  0  1
  -37.5577    4.8944   69.0180 H   0  0  0
  -35.6276    4.0279   69.4193 C   0  0  0
  -35.4266    3.3808   68.2040 C   0  0  0
  -35.9665    3.6870   67.3165 H   0  0  0
  -34.5592    2.3194   68.0861 C   0  0  0
  -34.4277    1.8305   67.1267 H   0  0  0
  -33.8787    1.8686   69.1897 C   0  0  0
  -33.2167    1.0146   69.1030 H   0  0  0
  -34.0452    2.5058   70.4000 C   0  0  0
  -33.4966    2.1417   71.2634 H   0  0  0
  -34.8967    3.5944   70.5275 C   0  0  0
  -35.0408    4.2378   71.8796 C   0  0  0
  -34.0556    4.3588   72.3425 H   0  0  0
  -35.6256    3.5684   72.5206 H   0  0  0
  -35.7223    5.5936   71.8065 C   0  0  0
  -35.0435    6.3404   71.3787 H   0  0  0
  -35.9728    5.9347   72.8159 H   0  0  0
  -36.9785    5.4852   70.9650 C   0  0  0
  -37.5325    6.4266   71.0168 H   0  0  0
  -37.6283    4.7055   71.3791 H   0  0  0
  -34.5756    7.8389   66.9434 C   0  0  0
  -34.2301    7.3098   66.0506 H   0  0  0
  -34.1138    7.3597   67.8124 H   0  0  0
  -34.0501    9.2033   66.9008 N   0  0  0
  -33.8108    9.9876   68.0010 C   0  0  0
  -33.9695    9.7687   69.3584 C   0  0  0
  -34.3474    8.8333   69.7602 H   0  0  0
  -33.6157   10.8099   70.1914 C   0  0  0
  -33.7134   10.6864   71.2653 H   0  0  0
  -33.1411   12.0037   69.6880 C   0  0  0
  -32.8723   12.7990   70.3745 H   0  0  0
  -32.9972   12.2054   68.3296 C   0  0  0
  -32.6208   13.1421   67.9391 H   0  0  0
  -33.3379   11.1718   67.4757 C   0  0  0
  -33.2852   11.1223   66.1041 N   0  0  0
  -33.7393    9.9304   65.7739 C   0  0  0
  -33.9204    9.4320   64.3862 C   0  0  0
  -33.8891   10.2695   63.6901 H   0  0  0
  -34.8889    8.9453   64.2523 H   0  0  0
  -32.8165    8.4651   64.0300 C   0  0  0
  -31.8203    8.2752   64.7091 O   0  0  0
  -33.0407    7.7933   62.8620 N   0  0  0
  -32.3646    7.1055   62.5550 H   0  0  0
  -33.8232    7.9761   62.2446 H   0  0  0
  2  1  1
  3  2  1
  3  4  1
  3  5  1
  3 30  1
  5  6  1
  5  7  1
  5  8  1
  9  8  1
  9 10  1
  9 11  1
  9 27  1
 11 12  1
 11 20  2
 12 13  1
 12 14  2
 14 15  1
 14 16  1
 16 17  1
 16 18  2
 18 19  1
 18 20  1
 20 21  1
 21 22  1
 21 23  1
 21 24  1
 24 25  1
 24 26  1
 24 27  1
 27 28  1
 27 29  1
 30 31  1
 30 32  1
 30 33  1
 33 34  1
 33 45  1
 34 35  1
 34 43  2
 35 36  1
 35 37  2
 37 38  1
 37 39  1
 39 40  1
 39 41  2
 41 42  1
 41 43  1
 43 44  1
 44 45  2
 45 46  1
 46 47  1
 46 48  1
 46 49  1
 49 50  2
 49 51  1
 51 52  1
 51 53  1
M  ZZC   1 h1
M  ZZC   2 o3
M  ZZC   3 c12
M  ZZC   4 h24
M  ZZC   5 c11
M  ZZC   6 h12
M  ZZC   7 h13
M  ZZC   8 o1
M  ZZC   9 c10
M  ZZC  10 h25
M  ZZC  11 c4
M  ZZC  12 c3
M  ZZC  13 h21
M  ZZC  14 c2
M  ZZC  15 h22
M  ZZC  16 c1
M  ZZC  17 h23
M  ZZC  18 c6
M  ZZC  19 h20
M  ZZC  20 c5
M  ZZC  21 c7
M  ZZC  22 h18
M  ZZC  23 h19
M  ZZC  24 c8
M  ZZC  25 h16
M  ZZC  26 h17
M  ZZC  27 c9
M  ZZC  28 h14
M  ZZC  29 h15
M  ZZC  30 c13
M  ZZC  31 h10
M  ZZC  32 h11
M  ZZC  33 n1
M  ZZC  34 c14
M  ZZC  35 c15
M  ZZC  36 h9
M  ZZC  37 c16
M  ZZC  38 h8
M  ZZC  39 c17
M  ZZC  40 h7
M  ZZC  41 c18
M  ZZC  42 h6
M  ZZC  43 c19
M  ZZC  44 n2
M  ZZC  45 c20
M  ZZC  46 c21
M  ZZC  47 h4
M  ZZC  48 h5
M  ZZC  49 c22
M  ZZC  50 o2
M  ZZC  51 n3
M  ZZC  52 h2
M  ZZC  53 h3
M  ZZM   1 21
M  ZZI   1 20
M  ZZM   2 6
M  ZZI   2 60
M  ZZM   3 1
M  ZZI   3 113
M  ZZM   4 5
M  ZZI   4 1
M  ZZM   5 1
M  ZZI   5 112
M  ZZM   6 5
M  ZZI   6 1
M  ZZM   7 5
M  ZZI   7 1
M  ZZM   8 6
M  ZZI   8 65
M  ZZM   9 1
M  ZZI   9 113
M  ZZM  10 5
M  ZZI  10 1
M  ZZM  11 37
M  ZZI  11 124
M  ZZM  12 37
M  ZZI  12 125
M  ZZM  13 5
M  ZZI  13 1
M  ZZM  14 37
M  ZZI  14 125
M  ZZM  15 5
M  ZZI  15 1
M  ZZM  16 37
M  ZZI  16 125
M  ZZM  17 5
M  ZZI  17 1
M  ZZM  18 37
M  ZZI  18 125
M  ZZM  19 5
M  ZZI  19 1
M  ZZM  20 37
M  ZZI  20 124
M  ZZM  21 1
M  ZZI  21 112
M  ZZM  22 5
M  ZZI  22 1
M  ZZM  23 5
M  ZZI  23 1
M  ZZM  24 1
M  ZZI  24 112
M  ZZM  25 5
M  ZZI  25 1
M  ZZM  26 5
M  ZZI  26 1
M  ZZM  27 1
M  ZZI  27 112
M  ZZM  28 5
M  ZZI  28 1
M  ZZM  29 5
M  ZZI  29 1
M  ZZM  30 1
M  ZZI  30 112
M  ZZM  31 5
M  ZZI  31 1
M  ZZM  32 5
M  ZZI  32 1
M  ZZM  33 39
M  ZZI  33 215
M  ZZM  34 63
M  ZZI  34 104
M  ZZM  35 37
M  ZZI  35 125
M  ZZM  36 5
M  ZZI  36 1
M  ZZM  37 37
M  ZZI  37 125
M  ZZM  38 5
M  ZZI  38 1
M  ZZM  39 37
M  ZZI  39 125
M  ZZM  40 5
M  ZZI  40 1
M  ZZM  41 37
M  ZZI  41 125
M  ZZM  42 5
M  ZZI  42 1
M  ZZM  43 64
M  ZZI  43 105
M  ZZM  44 66
M  ZZI  44 222
M  ZZM  45 63
M  ZZI  45 104
M  ZZM  46 1
M  ZZI  46 112
M  ZZM  47 5
M  ZZI  47 1
M  ZZM  48 5
M  ZZI  48 1
M  ZZM  49 3
M  ZZI  49 121
M  ZZM  50 7
M  ZZI  50 81
M  ZZM  51 10
M  ZZI  51 212
M  ZZM  52 28
M  ZZI  52 11
M  ZZM  53 28
M  ZZI  53 11
M  END
> <NAME>
Z287372568

> <Score>
-33.092253

> <Natom>
53

> <Nflex>
8

> <Hbond>
-8.994006

> <Hphob>
-5.873027

> <VwInt>
-27.749603

> <Eintl>
4.92171

> <Dsolv>
15.591738

> <SolEl>
7.353501

> <mfScore>
-109.062346

> <RecConf>
1

> <molLogP>
1.959808

$$$$
Z43999731
  MOLSOFT 11211612053D

 53 56  0  0  0  0  0  0  0  0999 V2000
  -34.9786    4.6307   71.1541 H   0  0  0
  -34.7518    3.8727   70.4122 C   0  0  0
  -34.2602    2.6299   70.7544 C   0  0  0
  -34.0901    2.3940   71.8003 H   0  0  0
  -33.9759    1.6814   69.7920 C   0  0  0
  -33.5884    0.7179   70.1034 H   0  0  0
  -34.1694    1.9222   68.4456 C   0  0  0
  -33.9356    1.1613   67.7096 H   0  0  0
  -34.6730    3.1597   68.0753 C   0  0  0
  -35.0262    3.7819   66.8506 C   0  0  0
  -34.9687    3.3500   65.8609 H   0  0  0
  -35.4758    5.0485   67.1652 C   0  0  0
  -35.4092    5.2418   68.5163 O   0  0  0
  -34.9377    4.0860   69.0645 C   0  0  0
  -35.9956    6.1097   66.3500 C   0  0  0
  -36.2549    5.9809   65.1623 O   0  0  0
  -36.1951    7.2908   67.0347 N   0  0  0
  -35.9925    7.3910   68.0273 H   0  0  0
  -36.8209    8.3449   66.3606 N   0  0  0
  -37.7920    8.2305   66.0906 H   0  0  0
  -36.1420    9.4730   65.9689 C   0  0  0
  -36.6015   10.3752   65.2874 O   0  0  0
  -34.7238    9.5896   66.4518 C   0  0  0
  -33.6402    9.0103   65.6498 C   0  0  0
  -33.8643    8.4534   64.3979 C   0  0  0
  -34.8542    8.4005   63.9557 H   0  0  0
  -32.7897    7.9739   63.6789 C   0  0  0
  -32.9441    7.5512   62.6904 H   0  0  0
  -31.5155    8.0408   64.2061 C   0  0  0
  -30.6731    7.6782   63.6248 H   0  0  0
  -31.3010    8.5666   65.4650 C   0  0  0
  -30.2912    8.6104   65.8631 H   0  0  0
  -32.3761    9.0638   66.1816 C   0  0  0
  -32.1698    9.7107   67.4892 C   0  0  0
  -31.0604    9.6589   68.0045 O   0  0  0
  -33.2660   10.3780   68.0244 N   0  0  0
  -34.5479   10.2501   67.5549 N   0  0  0
  -33.0957   11.2565   69.1692 C   0  0  0
  -33.8322   12.0638   69.0930 H   0  0  0
  -32.1073   11.7143   69.0898 H   0  0  0
  -33.2371   10.5130   70.4928 C   0  0  0
  -32.5063    9.7002   70.5484 H   0  0  0
  -34.2189   10.0293   70.5318 H   0  0  0
  -33.0955   11.4365   71.7021 C   0  0  0
  -33.2420   10.8469   72.6128 H   0  0  0
  -33.8993   12.1771   71.6801 H   0  0  0
  -31.7717   12.1914   71.8036 C   0  0  0
  -31.7904   12.8103   72.7060 H   0  0  0
  -31.6606   12.8831   70.9645 H   0  0  0
  -30.5572   11.2834   71.8602 C   0  0  0
  -29.6660   11.8881   72.0322 H   0  0  0
  -30.4123   10.7376   70.9236 H   0  0  0
  -30.6392   10.5602   72.6767 H   0  0  0
  2  1  1
  2  3  2
  2 14  1
  3  4  1
  3  5  1
  5  6  1
  5  7  2
  7  8  1
  7  9  1
  9 10  1
  9 14  2
 10 11  1
 10 12  2
 12 13  1
 12 15  1
 13 14  1
 15 16  2
 15 17  1
 17 18  1
 17 19  1
 19 20  1
 19 21  1
 21 22  2
 21 23  1
 23 24  1
 23 37  2
 24 25  2
 24 33  1
 25 26  1
 25 27  1
 27 28  1
 27 29  2
 29 30  1
 29 31  1
 31 32  1
 31 33  2
 33 34  1
 34 35  2
 34 36  1
 36 37  1
 36 38  1
 38 39  1
 38 40  1
 38 41  1
 41 42  1
 41 43  1
 41 44  1
 44 45  1
 44 46  1
 44 47  1
 47 48  1
 47 49  1
 47 50  1
 50 51  1
 50 52  1
 50 53  1
M  ZZC   1 h1
M  ZZC   2 c22
M  ZZC   3 c21
M  ZZC   4 h2
M  ZZC   5 c20
M  ZZC   6 h3
M  ZZC   7 c19
M  ZZC   8 h4
M  ZZC   9 c18
M  ZZC  10 c17
M  ZZC  11 h5
M  ZZC  12 c16
M  ZZC  13 o4
M  ZZC  14 c23
M  ZZC  15 c15
M  ZZC  16 o3
M  ZZC  17 n4
M  ZZC  18 h6
M  ZZC  19 n3
M  ZZC  20 h7
M  ZZC  21 c14
M  ZZC  22 o2
M  ZZC  23 c13
M  ZZC  24 c12
M  ZZC  25 c11
M  ZZC  26 h8
M  ZZC  27 c10
M  ZZC  28 h9
M  ZZC  29 c9
M  ZZC  30 h10
M  ZZC  31 c8
M  ZZC  32 h11
M  ZZC  33 c7
M  ZZC  34 c6
M  ZZC  35 o1
M  ZZC  36 n1
M  ZZC  37 n2
M  ZZC  38 c5
M  ZZC  39 h12
M  ZZC  40 h13
M  ZZC  41 c4
M  ZZC  42 h14
M  ZZC  43 h15
M  ZZC  44 c3
M  ZZC  45 h16
M  ZZC  46 h17
M  ZZC  47 c2
M  ZZC  48 h18
M  ZZC  49 h19
M  ZZC  50 c1
M  ZZC  51 h20
M  ZZC  52 h21
M  ZZC  53 h22
M  ZZM   1 5
M  ZZI   1 1
M  ZZM   2 37
M  ZZI   2 125
M  ZZM   3 37
M  ZZI   3 125
M  ZZM   4 5
M  ZZI   4 1
M  ZZM   5 37
M  ZZI   5 125
M  ZZM   6 5
M  ZZI   6 1
M  ZZM   7 37
M  ZZI   7 125
M  ZZM   8 5
M  ZZI   8 1
M  ZZM   9 64
M  ZZI   9 105
M  ZZM  10 64
M  ZZI  10 105
M  ZZM  11 5
M  ZZI  11 1
M  ZZM  12 63
M  ZZI  12 104
M  ZZM  13 59
M  ZZI  13 56
M  ZZM  14 63
M  ZZI  14 104
M  ZZM  15 3
M  ZZI  15 121
M  ZZM  16 7
M  ZZI  16 81
M  ZZM  17 10
M  ZZI  17 191
M  ZZM  18 28
M  ZZI  18 11
M  ZZM  19 10
M  ZZI  19 191
M  ZZM  20 28
M  ZZI  20 11
M  ZZM  21 3
M  ZZI  21 121
M  ZZM  22 7
M  ZZI  22 81
M  ZZM  23 3
M  ZZI  23 121
M  ZZM  24 37
M  ZZI  24 124
M  ZZM  25 37
M  ZZI  25 125
M  ZZM  26 5
M  ZZI  26 1
M  ZZM  27 37
M  ZZI  27 125
M  ZZM  28 5
M  ZZI  28 1
M  ZZM  29 37
M  ZZI  29 125
M  ZZM  30 5
M  ZZI  30 1
M  ZZM  31 37
M  ZZI  31 125
M  ZZM  32 5
M  ZZI  32 1
M  ZZM  33 37
M  ZZI  33 124
M  ZZM  34 3
M  ZZI  34 121
M  ZZM  35 7
M  ZZI  35 81
M  ZZM  36 10
M  ZZI  36 192
M  ZZM  37 9
M  ZZI  37 220
M  ZZM  38 1
M  ZZI  38 112
M  ZZM  39 5
M  ZZI  39 1
M  ZZM  40 5
M  ZZI  40 1
M  ZZM  41 1
M  ZZI  41 112
M  ZZM  42 5
M  ZZI  42 1
M  ZZM  43 5
M  ZZI  43 1
M  ZZM  44 1
M  ZZI  44 112
M  ZZM  45 5
M  ZZI  45 1
M  ZZM  46 5
M  ZZI  46 1
M  ZZM  47 1
M  ZZI  47 112
M  ZZM  48 5
M  ZZI  48 1
M  ZZM  49 5
M  ZZI  49 1
M  ZZM  50 1
M  ZZI  50 111
M  ZZM  51 5
M  ZZI  51 1
M  ZZM  52 5
M  ZZI  52 1
M  ZZM  53 5
M  ZZI  53 1
M  END
> <NAME>
Z43999731

> <Score>
-31.431525

> <Natom>
53

> <Nflex>
5

> <Hbond>
-4.665566

> <Hphob>
-6.578662

> <VwInt>
-33.399127

> <Eintl>
5.435334

> <Dsolv>
14.736209

> <SolEl>
6.253079

> <mfScore>
-107.896729

> <RecConf>
1

> <molLogP>
3.650422

$$$$
Z65729356
  MOLSOFT 11211612053D

 53 57  0  0  1  0  0  0  0  0999 V2000
  -34.9317    5.5440   65.9057 H   0  0  0
  -35.0627    5.4903   66.9789 C   0  0  0
  -35.3329    6.6319   67.7348 C   0  0  0
  -35.4768    6.4537   69.1079 C   0  0  0
  -35.6959    7.2960   69.7547 H   0  0  0
  -35.3623    5.2073   69.6910 C   0  0  0
  -35.4835    5.0997   70.7643 H   0  0  0
  -35.0998    4.0977   68.9196 C   0  0  0
  -35.0104    3.1173   69.3769 H   0  0  0
  -34.9512    4.2432   67.5603 C   0  0  0
  -34.7454    3.3732   66.9434 H   0  0  0
  -35.5134    8.0244   67.1303 C   0  0  2
  -36.0005    8.6248   67.9002 H   0  0  0
  -36.4676    8.0598   65.9488 C   0  0  0
  -36.7255    9.0917   65.6796 H   0  0  0
  -37.3980    7.5529   66.2144 H   0  0  0
  -35.9390    7.4148   64.7855 O   0  0  0
  -34.6217    7.8005   64.5275 C   0  0  0
  -33.7909    8.4180   65.4582 C   0  0  0
  -32.4884    8.7343   65.0824 C   0  0  0
  -31.7828    9.1692   65.7807 H   0  0  0
  -32.0370    8.4655   63.8088 C   0  0  0
  -31.0191    8.7128   63.5245 H   0  0  0
  -32.8766    7.8739   62.8966 C   0  0  0
  -32.5247    7.6747   61.8917 H   0  0  0
  -34.1591    7.5325   63.2588 C   0  0  0
  -34.8146    7.0730   62.5325 H   0  0  0
  -34.2737    8.7084   66.7591 N   0  0  0
  -33.6834    9.7362   67.5000 C   0  0  0
  -32.7863   10.4563   67.0834 O   0  0  0
  -34.2680    9.9903   68.8654 C   0  0  0
  -34.3229    9.0756   69.4579 H   0  0  0
  -35.2667   10.4288   68.7671 H   0  0  0
  -33.4579   10.9469   69.6037 N   0  0  0
  -32.4640   10.6763   70.5038 C   0  0  0
  -32.1244   11.8863   71.0054 C   0  0  0
  -32.8310   12.9034   70.4321 N   0  0  0
  -33.6157   12.3069   69.5613 C   0  0  0
  -34.3115   12.7975   68.8943 H   0  0  0
  -31.1690   12.0261   71.9787 N   0  0  0
  -30.8273   13.3315   72.5118 C   0  0  0
  -30.0404   13.2584   73.2657 H   0  0  0
  -31.7172   13.7776   72.9670 H   0  0  0
  -30.4718   13.9690   71.7013 H   0  0  0
  -30.5477   10.8833   72.4543 C   0  0  0
  -29.6830   10.9489   73.3127 O   0  0  0
  -30.9387    9.6573   71.9189 N   0  0  0
  -31.8504    9.4664   70.9014 C   0  0  0
  -32.0828    8.3782   70.3939 O   0  0  0
  -30.3104    8.4599   72.4406 C   0  0  0
  -29.6994    8.0189   71.6497 H   0  0  0
  -31.0831    7.7370   72.7215 H   0  0  0
  -29.6890    8.6737   73.3085 H   0  0  0
  2  1  1
  2  3  1
  2 10  2
  3  4  2
 12  3  1
  4  5  1
  4  6  1
  6  7  1
  6  8  2
  8  9  1
  8 10  1
 10 11  1
 12 13  1
 12 14  1
 12 28  1
 14 15  1
 14 16  1
 14 17  1
 17 18  1
 18 19  1
 18 26  2
 19 20  2
 19 28  1
 20 21  1
 20 22  1
 22 23  1
 22 24  2
 24 25  1
 24 26  1
 26 27  1
 28 29  1
 29 30  2
 29 31  1
 31 32  1
 31 33  1
 31 34  1
 34 35  1
 34 38  1
 35 36  2
 35 48  1
 36 37  1
 36 40  1
 37 38  2
 38 39  1
 40 41  1
 40 45  1
 41 42  1
 41 43  1
 41 44  1
 45 46  2
 45 47  1
 47 48  1
 47 50  1
 48 49  2
 50 51  1
 50 52  1
 50 53  1
M  ZZC   1 h1
M  ZZC   2 c23
M  ZZC   3 c18
M  ZZC   4 c19
M  ZZC   5 h5
M  ZZC   6 c20
M  ZZC   7 h4
M  ZZC   8 c21
M  ZZC   9 h3
M  ZZC  10 c22
M  ZZC  11 h2
M  ZZC  12 c17
M  ZZC  13 h21
M  ZZC  14 c16
M  ZZC  15 h6
M  ZZC  16 h7
M  ZZC  17 o4
M  ZZC  18 c15
M  ZZC  19 c10
M  ZZC  20 c11
M  ZZC  21 h11
M  ZZC  22 c12
M  ZZC  23 h10
M  ZZC  24 c13
M  ZZC  25 h9
M  ZZC  26 c14
M  ZZC  27 h8
M  ZZC  28 n5
M  ZZC  29 c9
M  ZZC  30 o3
M  ZZC  31 c8
M  ZZC  32 h12
M  ZZC  33 h13
M  ZZC  34 n3
M  ZZC  35 c3
M  ZZC  36 c2
M  ZZC  37 n4
M  ZZC  38 c7
M  ZZC  39 h14
M  ZZC  40 n1
M  ZZC  41 c1
M  ZZC  42 h18
M  ZZC  43 h19
M  ZZC  44 h20
M  ZZC  45 c5
M  ZZC  46 o2
M  ZZC  47 n2
M  ZZC  48 c4
M  ZZC  49 o1
M  ZZC  50 c6
M  ZZC  51 h15
M  ZZC  52 h16
M  ZZC  53 h17
M  ZZM   1 5
M  ZZI   1 1
M  ZZM   2 37
M  ZZI   2 125
M  ZZM   3 37
M  ZZI   3 124
M  ZZM   4 37
M  ZZI   4 125
M  ZZM   5 5
M  ZZI   5 1
M  ZZM   6 37
M  ZZI   6 125
M  ZZM   7 5
M  ZZI   7 1
M  ZZM   8 37
M  ZZI   8 125
M  ZZM   9 5
M  ZZI   9 1
M  ZZM  10 37
M  ZZI  10 125
M  ZZM  11 5
M  ZZI  11 1
M  ZZM  12 1
M  ZZI  12 113
M  ZZM  13 5
M  ZZI  13 1
M  ZZM  14 1
M  ZZI  14 112
M  ZZM  15 5
M  ZZI  15 1
M  ZZM  16 5
M  ZZI  16 1
M  ZZM  17 6
M  ZZI  17 59
M  ZZM  18 37
M  ZZI  18 124
M  ZZM  19 37
M  ZZI  19 124
M  ZZM  20 37
M  ZZI  20 125
M  ZZM  21 5
M  ZZI  21 1
M  ZZM  22 37
M  ZZI  22 125
M  ZZM  23 5
M  ZZI  23 1
M  ZZM  24 37
M  ZZI  24 125
M  ZZM  25 5
M  ZZI  25 1
M  ZZM  26 37
M  ZZI  26 125
M  ZZM  27 5
M  ZZI  27 1
M  ZZM  28 10
M  ZZI  28 192
M  ZZM  29 3
M  ZZI  29 121
M  ZZM  30 7
M  ZZI  30 81
M  ZZM  31 1
M  ZZI  31 112
M  ZZM  32 5
M  ZZI  32 1
M  ZZM  33 5
M  ZZI  33 1
M  ZZM  34 39
M  ZZI  34 215
M  ZZM  35 63
M  ZZI  35 104
M  ZZM  36 64
M  ZZI  36 105
M  ZZM  37 66
M  ZZI  37 222
M  ZZM  38 63
M  ZZI  38 104
M  ZZM  39 5
M  ZZI  39 6
M  ZZM  40 10
M  ZZI  40 192
M  ZZM  41 1
M  ZZI  41 111
M  ZZM  42 5
M  ZZI  42 1
M  ZZM  43 5
M  ZZI  43 1
M  ZZM  44 5
M  ZZI  44 1
M  ZZM  45 3
M  ZZI  45 121
M  ZZM  46 7
M  ZZI  46 81
M  ZZM  47 10
M  ZZI  47 192
M  ZZM  48 3
M  ZZI  48 121
M  ZZM  49 7
M  ZZI  49 81
M  ZZM  50 1
M  ZZI  50 111
M  ZZM  51 5
M  ZZI  51 1
M  ZZM  52 5
M  ZZI  52 1
M  ZZM  53 5
M  ZZI  53 1
M  END
> <NAME>
Z65729356

> <Score>
-30.544267

> <Natom>
53

> <Nflex>
4

> <Hbond>
-5.452438

> <Hphob>
-6.878835

> <VwInt>
-30.715074

> <Eintl>
8.889219

> <Dsolv>
15.097656

> <SolEl>
7.35008

> <mfScore>
-110.425746

> <RecConf>
1

> <molLogP>
1.64807

$$$$
Z146745762
  MOLSOFT 11211612053D

 53 55  0  0  1  0  0  0  0  0999 V2000
  -34.8371    9.5032   68.6035 O   0  0  0
  -34.9308   10.0339   67.5050 C   0  0  0
  -34.2484   11.1491   67.1056 O   0  0  0
  -33.4113   11.6978   68.1228 C   0  0  0
  -32.9259   12.6116   67.7660 H   0  0  0
  -34.0380   11.9527   68.9812 H   0  0  0
  -32.6655   10.9653   68.4458 H   0  0  0
  -35.8127    9.5316   66.3939 C   0  0  0
  -36.8402    9.4983   66.7679 H   0  0  0
  -35.7905   10.2569   65.5750 H   0  0  0
  -35.3876    8.1710   65.8608 C   0  0  1
  -36.1096    7.9136   65.0819 H   0  0  0
  -34.0236    8.1833   65.2198 C   0  0  0
  -32.8629    8.2343   65.9811 C   0  0  0
  -32.9022    8.2542   67.0653 H   0  0  0
  -31.6296    8.2557   65.3769 C   0  0  0
  -30.7359    8.3011   65.9920 H   0  0  0
  -31.5279    8.2054   64.0008 C   0  0  0
  -30.1818    8.2042   63.3578 C   0  0  0
  -29.6958    7.2342   63.4700 H   0  0  0
  -30.2526    8.4557   62.2976 H   0  0  0
  -29.5676    8.9591   63.8373 H   0  0  0
  -32.6751    8.1145   63.2380 C   0  0  0
  -32.6100    8.0382   62.1576 H   0  0  0
  -33.9116    8.1118   63.8402 C   0  0  0
  -34.7944    8.0391   63.2133 H   0  0  0
  -35.4651    7.1160   66.8470 N   0  0  0
  -35.1254    7.2768   67.7919 H   0  0  0
  -35.8181    5.8466   66.4488 C   0  0  0
  -36.2780    5.5269   65.3623 O   0  0  0
  -35.5947    4.7990   67.5027 C   0  0  0
  -34.9584    3.4731   67.2105 C   0  0  0
  -34.7202    3.1504   66.0555 O   0  0  0
  -34.5948    2.6419   68.3611 C   0  0  0
  -33.9861    1.7598   68.1963 H   0  0  0
  -35.0567    3.0496   69.5478 C   0  0  0
  -34.6179    2.2629   70.7498 C   0  0  0
  -34.4328    2.9129   71.6104 H   0  0  0
  -35.3523    1.4996   71.0206 H   0  0  0
  -33.6747    1.7445   70.5527 H   0  0  0
  -35.8363    4.1980   69.6949 N   0  0  0
  -35.9811    5.1257   68.6993 N   0  0  0
  -36.6684    4.5363   70.8006 C   0  0  0
  -37.2800    3.6068   71.6373 C   0  0  0
  -37.0938    2.5483   71.5269 H   0  0  0
  -38.2199    3.9910   72.5726 C   0  0  0
  -38.7178    3.2410   73.1796 H   0  0  0
  -38.5598    5.3181   72.7059 C   0  0  0
  -39.3349    5.6260   73.3932 H   0  0  0
  -37.9221    6.2629   71.9433 C   0  0  0
  -38.1696    7.3122   72.0685 H   0  0  0
  -36.9954    5.8704   71.0023 C   0  0  0
  -36.5224    6.6351   70.3969 H   0  0  0
  2  1  2
  2  3  1
  2  8  1
  3  4  1
  4  5  1
  4  6  1
  4  7  1
  8  9  1
  8 10  1
 11  8  1
 11 12  1
 11 13  1
 11 27  1
 13 14  2
 13 25  1
 14 15  1
 14 16  1
 16 17  1
 16 18  2
 18 19  1
 18 23  1
 19 20  1
 19 21  1
 19 22  1
 23 24  1
 23 25  2
 25 26  1
 27 28  1
 27 29  1
 29 30  2
 29 31  1
 31 32  1
 31 42  2
 32 33  2
 32 34  1
 34 35  1
 34 36  2
 36 37  1
 36 41  1
 37 38  1
 37 39  1
 37 40  1
 41 42  1
 41 43  1
 43 44  2
 43 52  1
 44 45  1
 44 46  1
 46 47  1
 46 48  2
 48 49  1
 48 50  1
 50 51  1
 50 52  2
 52 53  1
M  ZZC   1 o1
M  ZZC   2 c10
M  ZZC   3 o2
M  ZZC   4 c11
M  ZZC   5 h11
M  ZZC   6 h12
M  ZZC   7 h13
M  ZZC   8 c9
M  ZZC   9 h14
M  ZZC  10 h15
M  ZZC  11 c8
M  ZZC  12 h23
M  ZZC  13 c5
M  ZZC  14 c4
M  ZZC  15 h18
M  ZZC  16 c3
M  ZZC  17 h19
M  ZZC  18 c2
M  ZZC  19 c1
M  ZZC  20 h20
M  ZZC  21 h21
M  ZZC  22 h22
M  ZZC  23 c7
M  ZZC  24 h16
M  ZZC  25 c6
M  ZZC  26 h17
M  ZZC  27 n1
M  ZZC  28 h10
M  ZZC  29 c12
M  ZZC  30 o3
M  ZZC  31 c13
M  ZZC  32 c14
M  ZZC  33 o4
M  ZZC  34 c15
M  ZZC  35 h9
M  ZZC  36 c16
M  ZZC  37 c23
M  ZZC  38 h1
M  ZZC  39 h2
M  ZZC  40 h3
M  ZZC  41 n2
M  ZZC  42 n3
M  ZZC  43 c17
M  ZZC  44 c18
M  ZZC  45 h8
M  ZZC  46 c19
M  ZZC  47 h7
M  ZZC  48 c20
M  ZZC  49 h6
M  ZZC  50 c21
M  ZZC  51 h5
M  ZZC  52 c22
M  ZZC  53 h4
M  ZZM   1 7
M  ZZI   1 82
M  ZZM   2 3
M  ZZI   2 123
M  ZZM   3 6
M  ZZI   3 65
M  ZZM   4 1
M  ZZI   4 111
M  ZZM   5 5
M  ZZI   5 1
M  ZZM   6 5
M  ZZI   6 1
M  ZZM   7 5
M  ZZI   7 1
M  ZZM   8 1
M  ZZI   8 112
M  ZZM   9 5
M  ZZI   9 1
M  ZZM  10 5
M  ZZI  10 1
M  ZZM  11 1
M  ZZI  11 113
M  ZZM  12 5
M  ZZI  12 1
M  ZZM  13 37
M  ZZI  13 124
M  ZZM  14 37
M  ZZI  14 125
M  ZZM  15 5
M  ZZI  15 1
M  ZZM  16 37
M  ZZI  16 125
M  ZZM  17 5
M  ZZI  17 1
M  ZZM  18 37
M  ZZI  18 124
M  ZZM  19 1
M  ZZI  19 111
M  ZZM  20 5
M  ZZI  20 1
M  ZZM  21 5
M  ZZI  21 1
M  ZZM  22 5
M  ZZI  22 1
M  ZZM  23 37
M  ZZI  23 125
M  ZZM  24 5
M  ZZI  24 1
M  ZZM  25 37
M  ZZI  25 125
M  ZZM  26 5
M  ZZI  26 1
M  ZZM  27 10
M  ZZI  27 211
M  ZZM  28 28
M  ZZI  28 11
M  ZZM  29 3
M  ZZI  29 121
M  ZZM  30 7
M  ZZI  30 81
M  ZZM  31 3
M  ZZI  31 121
M  ZZM  32 3
M  ZZI  32 122
M  ZZM  33 7
M  ZZI  33 80
M  ZZM  34 2
M  ZZI  34 120
M  ZZM  35 5
M  ZZI  35 1
M  ZZM  36 2
M  ZZI  36 120
M  ZZM  37 1
M  ZZI  37 111
M  ZZM  38 5
M  ZZI  38 1
M  ZZM  39 5
M  ZZI  39 1
M  ZZM  40 5
M  ZZI  40 1
M  ZZM  41 40
M  ZZI  41 193
M  ZZM  42 9
M  ZZI  42 220
M  ZZM  43 37
M  ZZI  43 124
M  ZZM  44 37
M  ZZI  44 125
M  ZZM  45 5
M  ZZI  45 1
M  ZZM  46 37
M  ZZI  46 125
M  ZZM  47 5
M  ZZI  47 1
M  ZZM  48 37
M  ZZI  48 125
M  ZZM  49 5
M  ZZI  49 1
M  ZZM  50 37
M  ZZI  50 125
M  ZZM  51 5
M  ZZI  51 1
M  ZZM  52 37
M  ZZI  52 125
M  ZZM  53 5
M  ZZI  53 1
M  END
> <NAME>
Z146745762

> <Score>
-28.028303

> <Natom>
53

> <Nflex>
6

> <Hbond>
-2.113906

> <Hphob>
-7.695084

> <VwInt>
-32.708883

> <Eintl>
9.004805

> <Dsolv>
11.468885

> <SolEl>
4.519401

> <mfScore>
-79.484161

> <RecConf>
1

> <molLogP>
2.35175

$$$$
Z17963360
  MOLSOFT 11211612053D

 53 54  0  0  1  0  0  0  0  0999 V2000
  -33.6298   10.8395   65.2072 O   0  0  0
  -33.7954   10.0449   66.1227 C   0  0  0
  -34.0542    8.5554   65.9607 C   0  0  2
  -33.2475    8.0422   66.4973 H   0  0  0
  -33.9092    8.2465   64.5419 N   0  0  0
  -34.6732    8.4029   63.8975 H   0  0  0
  -32.6812    8.0114   64.0112 C   0  0  0
  -31.6414    7.9792   64.6437 O   0  0  0
  -32.7268    7.8312   62.6783 N   0  0  0
  -31.8690    7.5863   62.2031 H   0  0  0
  -33.5849    7.8451   62.1457 H   0  0  0
  -35.4286    8.1462   66.5092 C   0  0  0
  -36.2043    8.2252   65.7391 H   0  0  0
  -35.7420    8.8190   67.3141 H   0  0  0
  -35.4021    6.7352   67.0447 C   0  0  0
  -35.3256    5.6547   66.1767 C   0  0  0
  -35.2674    5.8136   65.1042 H   0  0  0
  -35.3303    4.3608   66.6609 C   0  0  0
  -35.2675    3.5252   65.9712 H   0  0  0
  -35.4210    4.1255   68.0172 C   0  0  0
  -35.4302    3.1087   68.3975 H   0  0  0
  -35.5007    5.1891   68.8901 C   0  0  0
  -35.5775    5.0071   69.9578 H   0  0  0
  -35.4885    6.4827   68.4073 C   0  0  0
  -35.5603    7.3036   69.1115 H   0  0  0
  -33.7416   10.3874   67.4398 O   0  0  0
  -33.4744   11.7835   67.6171 C   0  0  0
  -34.3018   12.3820   67.2259 H   0  0  0
  -32.5226   12.0624   67.1531 H   0  0  0
  -33.3647   12.0256   69.0922 C   0  0  0
  -33.3004   13.1474   69.5660 O   0  0  0
  -33.3200   10.8588   69.8152 N   0  0  0
  -33.3437    9.9822   69.3036 H   0  0  0
  -33.1781   10.8416   71.2570 C   0  0  0
  -33.8299   11.6374   71.6316 H   0  0  0
  -31.7465   11.2006   71.6812 C   0  0  0
  -31.6579   11.1991   72.7725 H   0  0  0
  -31.5455   12.2311   71.3695 H   0  0  0
  -30.6709   10.3195   71.0504 C   0  0  0
  -30.9244   10.0765   70.0142 H   0  0  0
  -29.7404   10.8924   70.9928 H   0  0  0
  -30.3781    9.0360   71.8165 C   0  0  0
  -29.8389    8.3560   71.1493 H   0  0  0
  -29.6895    9.2624   72.6347 H   0  0  0
  -31.5770    8.3139   72.4189 C   0  0  0
  -31.2769    7.2869   72.6486 H   0  0  0
  -31.8164    8.7685   73.3794 H   0  0  0
  -32.8299    8.2951   71.5546 C   0  0  0
  -32.5823    8.1807   70.4945 H   0  0  0
  -33.4138    7.4105   71.8287 H   0  0  0
  -33.7113    9.5171   71.8060 C   0  0  0
  -34.6919    9.3237   71.3583 H   0  0  0
  -33.8875    9.6182   72.8821 H   0  0  0
  2  1  2
  3  2  1
  2 26  1
  3  4  1
  3  5  1
  3 12  1
  5  6  1
  5  7  1
  7  8  2
  7  9  1
  9 10  1
  9 11  1
 12 13  1
 12 14  1
 12 15  1
 15 16  1
 15 24  2
 16 17  1
 16 18  2
 18 19  1
 18 20  1
 20 21  1
 20 22  2
 22 23  1
 22 24  1
 24 25  1
 26 27  1
 27 28  1
 27 29  1
 27 30  1
 30 31  2
 30 32  1
 32 33  1
 32 34  1
 34 35  1
 34 36  1
 34 51  1
 36 37  1
 36 38  1
 36 39  1
 39 40  1
 39 41  1
 39 42  1
 42 43  1
 42 44  1
 42 45  1
 45 46  1
 45 47  1
 45 48  1
 48 49  1
 48 50  1
 48 51  1
 51 52  1
 51 53  1
M  ZZC   1 o1
M  ZZC   2 c9
M  ZZC   3 c8
M  ZZC   4 h27
M  ZZC   5 n2
M  ZZC   6 h3
M  ZZC   7 c19
M  ZZC   8 o4
M  ZZC   9 n3
M  ZZC  10 h1
M  ZZC  11 h2
M  ZZC  12 c7
M  ZZC  13 h20
M  ZZC  14 h21
M  ZZC  15 c4
M  ZZC  16 c3
M  ZZC  17 h24
M  ZZC  18 c2
M  ZZC  19 h25
M  ZZC  20 c1
M  ZZC  21 h26
M  ZZC  22 c6
M  ZZC  23 h22
M  ZZC  24 c5
M  ZZC  25 h23
M  ZZC  26 o2
M  ZZC  27 c10
M  ZZC  28 h18
M  ZZC  29 h19
M  ZZC  30 c11
M  ZZC  31 o3
M  ZZC  32 n1
M  ZZC  33 h17
M  ZZC  34 c12
M  ZZC  35 h16
M  ZZC  36 c13
M  ZZC  37 h14
M  ZZC  38 h15
M  ZZC  39 c14
M  ZZC  40 h12
M  ZZC  41 h13
M  ZZC  42 c15
M  ZZC  43 h10
M  ZZC  44 h11
M  ZZC  45 c16
M  ZZC  46 h8
M  ZZC  47 h9
M  ZZC  48 c17
M  ZZC  49 h6
M  ZZC  50 h7
M  ZZC  51 c18
M  ZZC  52 h4
M  ZZC  53 h5
M  ZZM   1 7
M  ZZI   1 82
M  ZZM   2 3
M  ZZI   2 123
M  ZZM   3 1
M  ZZI   3 113
M  ZZM   4 5
M  ZZI   4 1
M  ZZM   5 10
M  ZZI   5 211
M  ZZM   6 28
M  ZZI   6 11
M  ZZM   7 3
M  ZZI   7 121
M  ZZM   8 7
M  ZZI   8 81
M  ZZM   9 10
M  ZZI   9 212
M  ZZM  10 28
M  ZZI  10 11
M  ZZM  11 28
M  ZZI  11 11
M  ZZM  12 1
M  ZZI  12 112
M  ZZM  13 5
M  ZZI  13 1
M  ZZM  14 5
M  ZZI  14 1
M  ZZM  15 37
M  ZZI  15 124
M  ZZM  16 37
M  ZZI  16 125
M  ZZM  17 5
M  ZZI  17 1
M  ZZM  18 37
M  ZZI  18 125
M  ZZM  19 5
M  ZZI  19 1
M  ZZM  20 37
M  ZZI  20 125
M  ZZM  21 5
M  ZZI  21 1
M  ZZM  22 37
M  ZZI  22 125
M  ZZM  23 5
M  ZZI  23 1
M  ZZM  24 37
M  ZZI  24 125
M  ZZM  25 5
M  ZZI  25 1
M  ZZM  26 6
M  ZZI  26 65
M  ZZM  27 1
M  ZZI  27 112
M  ZZM  28 5
M  ZZI  28 1
M  ZZM  29 5
M  ZZI  29 1
M  ZZM  30 3
M  ZZI  30 121
M  ZZM  31 7
M  ZZI  31 81
M  ZZM  32 10
M  ZZI  32 211
M  ZZM  33 28
M  ZZI  33 11
M  ZZM  34 1
M  ZZI  34 113
M  ZZM  35 5
M  ZZI  35 1
M  ZZM  36 1
M  ZZI  36 112
M  ZZM  37 5
M  ZZI  37 1
M  ZZM  38 5
M  ZZI  38 1
M  ZZM  39 1
M  ZZI  39 112
M  ZZM  40 5
M  ZZI  40 1
M  ZZM  41 5
M  ZZI  41 1
M  ZZM  42 1
M  ZZI  42 112
M  ZZM  43 5
M  ZZI  43 1
M  ZZM  44 5
M  ZZI  44 1
M  ZZM  45 1
M  ZZI  45 112
M  ZZM  46 5
M  ZZI  46 1
M  ZZM  47 5
M  ZZI  47 1
M  ZZM  48 1
M  ZZI  48 112
M  ZZM  49 5
M  ZZI  49 1
M  ZZM  50 5
M  ZZI  50 1
M  ZZM  51 1
M  ZZI  51 112
M  ZZM  52 5
M  ZZI  52 1
M  ZZM  53 5
M  ZZI  53 1
M  END
> <NAME>
Z17963360

> <Score>
-25.693933

> <Natom>
53

> <Nflex>
8

> <Hbond>
-5.24691

> <Hphob>
-5.762751

> <VwInt>
-31.670157

> <Eintl>
9.521496

> <Dsolv>
15.063954

> <SolEl>
10.627247

> <mfScore>
-94.776228

> <RecConf>
1

> <molLogP>
2.257943

$$$$
Z444991632
  MOLSOFT 11211612053D

 53 55  0  0  1  0  0  0  0  0999 V2000
  -33.1790   12.9574   67.3274 H   0  0  0
  -33.4127   12.0337   67.8393 C   0  0  0
  -33.5212   12.0202   69.2111 C   0  0  0
  -33.3748   12.9268   69.7869 H   0  0  0
  -33.8203   10.8280   69.8291 C   0  0  0
  -33.9123   10.7686   70.9094 H   0  0  0
  -33.9938    9.7104   69.0410 C   0  0  0
  -34.2264    8.7623   69.5153 H   0  0  0
  -33.8390    9.7990   67.6613 C   0  0  0
  -33.5633   10.9671   67.0449 N   0  0  0
  -33.9492    8.5353   66.8286 C   0  0  2
  -33.5760    7.7319   67.4662 H   0  0  0
  -33.0070    8.4710   65.6398 C   0  0  0
  -31.6479    8.6695   65.8395 C   0  0  0
  -31.2585    8.8856   66.8300 H   0  0  0
  -30.7638    8.5958   64.7885 C   0  0  0
  -29.7069    8.7552   64.9679 H   0  0  0
  -31.2065    8.3307   63.5138 C   0  0  0
  -30.5017    8.2784   62.6909 H   0  0  0
  -32.5434    8.0986   63.2983 C   0  0  0
  -32.8952    7.8552   62.3009 H   0  0  0
  -33.4322    8.1566   64.3488 C   0  0  0
  -34.4731    7.9474   64.1295 H   0  0  0
  -35.3336    8.1916   66.4654 N   0  0  0
  -36.1860    9.2269   65.8959 C   0  0  0
  -36.4589    9.9140   66.6972 H   0  0  0
  -37.1076    8.8011   65.4924 H   0  0  0
  -35.6624    9.7697   65.1048 H   0  0  0
  -35.7955    6.8826   66.4818 C   0  0  0
  -36.6545    6.4729   65.7156 O   0  0  0
  -35.1451    5.9762   67.5025 C   0  0  0
  -34.2474    5.5468   67.0623 H   0  0  0
  -34.8693    6.5484   68.3936 H   0  0  0
  -36.0937    4.8702   67.9091 C   0  0  0
  -37.0535    5.3228   68.1812 H   0  0  0
  -36.2799    4.2150   67.0523 H   0  0  0
  -35.5892    4.0756   69.0573 C   0  0  0
  -35.8022    4.3393   70.4383 C   0  0  0
  -36.5647    5.4549   71.0456 C   0  0  0
  -36.1255    6.4172   70.7673 H   0  0  0
  -36.5679    5.3902   72.1377 H   0  0  0
  -37.6051    5.4411   70.7070 H   0  0  0
  -35.2229    3.4226   71.2213 N   0  0  0
  -34.6726    2.5554   70.3478 N   0  0  0
  -33.9964    1.3774   70.8771 C   0  0  0
  -33.1447    1.7144   71.4761 H   0  0  0
  -33.6539    0.7456   70.0541 H   0  0  0
  -34.7109    0.8245   71.4950 H   0  0  0
  -34.8431    2.9140   69.0297 C   0  0  0
  -34.3163    2.1141   67.8954 C   0  0  0
  -34.4589    2.6275   66.9403 H   0  0  0
  -34.8330    1.1526   67.8405 H   0  0  0
  -33.2458    1.9228   68.0097 H   0  0  0
  2  1  1
  2  3  1
  2 10  2
  3  4  1
  3  5  2
  5  6  1
  5  7  1
  7  8  1
  7  9  2
  9 10  1
 11  9  1
 11 12  1
 11 13  1
 11 24  1
 13 14  2
 13 22  1
 14 15  1
 14 16  1
 16 17  1
 16 18  2
 18 19  1
 18 20  1
 20 21  1
 20 22  2
 22 23  1
 24 25  1
 24 29  1
 25 26  1
 25 27  1
 25 28  1
 29 30  2
 29 31  1
 31 32  1
 31 33  1
 31 34  1
 34 35  1
 34 36  1
 34 37  1
 37 38  1
 37 49  2
 38 39  1
 38 43  2
 39 40  1
 39 41  1
 39 42  1
 43 44  1
 44 45  1
 44 49  1
 45 46  1
 45 47  1
 45 48  1
 49 50  1
 50 51  1
 50 52  1
 50 53  1
M  ZZC   1 h1
M  ZZC   2 c22
M  ZZC   3 c21
M  ZZC   4 h2
M  ZZC   5 c20
M  ZZC   6 h3
M  ZZC   7 c19
M  ZZC   8 h4
M  ZZC   9 c18
M  ZZC  10 n4
M  ZZC  11 c11
M  ZZC  12 h26
M  ZZC  13 c12
M  ZZC  14 c13
M  ZZC  15 h9
M  ZZC  16 c14
M  ZZC  17 h8
M  ZZC  18 c15
M  ZZC  19 h7
M  ZZC  20 c16
M  ZZC  21 h6
M  ZZC  22 c17
M  ZZC  23 h5
M  ZZC  24 n3
M  ZZC  25 c10
M  ZZC  26 h10
M  ZZC  27 h11
M  ZZC  28 h12
M  ZZC  29 c9
M  ZZC  30 o1
M  ZZC  31 c8
M  ZZC  32 h13
M  ZZC  33 h14
M  ZZC  34 c7
M  ZZC  35 h15
M  ZZC  36 h16
M  ZZC  37 c3
M  ZZC  38 c2
M  ZZC  39 c1
M  ZZC  40 h23
M  ZZC  41 h24
M  ZZC  42 h25
M  ZZC  43 n2
M  ZZC  44 n1
M  ZZC  45 c5
M  ZZC  46 h20
M  ZZC  47 h21
M  ZZC  48 h22
M  ZZC  49 c4
M  ZZC  50 c6
M  ZZC  51 h17
M  ZZC  52 h18
M  ZZC  53 h19
M  ZZM   1 5
M  ZZI   1 1
M  ZZM   2 37
M  ZZI   2 125
M  ZZM   3 37
M  ZZI   3 125
M  ZZM   4 5
M  ZZI   4 1
M  ZZM   5 37
M  ZZI   5 125
M  ZZM   6 5
M  ZZI   6 1
M  ZZM   7 37
M  ZZI   7 125
M  ZZM   8 5
M  ZZI   8 1
M  ZZM   9 37
M  ZZI   9 124
M  ZZM  10 38
M  ZZI  10 223
M  ZZM  11 1
M  ZZI  11 113
M  ZZM  12 5
M  ZZI  12 1
M  ZZM  13 37
M  ZZI  13 124
M  ZZM  14 37
M  ZZI  14 125
M  ZZM  15 5
M  ZZI  15 1
M  ZZM  16 37
M  ZZI  16 125
M  ZZM  17 5
M  ZZI  17 1
M  ZZM  18 37
M  ZZI  18 125
M  ZZM  19 5
M  ZZI  19 1
M  ZZM  20 37
M  ZZI  20 125
M  ZZM  21 5
M  ZZI  21 1
M  ZZM  22 37
M  ZZI  22 125
M  ZZM  23 5
M  ZZI  23 1
M  ZZM  24 10
M  ZZI  24 192
M  ZZM  25 1
M  ZZI  25 111
M  ZZM  26 5
M  ZZI  26 1
M  ZZM  27 5
M  ZZI  27 1
M  ZZM  28 5
M  ZZI  28 1
M  ZZM  29 3
M  ZZI  29 121
M  ZZM  30 7
M  ZZI  30 81
M  ZZM  31 1
M  ZZI  31 112
M  ZZM  32 5
M  ZZI  32 1
M  ZZM  33 5
M  ZZI  33 1
M  ZZM  34 1
M  ZZI  34 112
M  ZZM  35 5
M  ZZI  35 1
M  ZZM  36 5
M  ZZI  36 1
M  ZZM  37 64
M  ZZI  37 105
M  ZZM  38 64
M  ZZI  38 105
M  ZZM  39 1
M  ZZI  39 111
M  ZZM  40 5
M  ZZI  40 1
M  ZZM  41 5
M  ZZI  41 1
M  ZZM  42 5
M  ZZI  42 1
M  ZZM  43 65
M  ZZI  43 207
M  ZZM  44 39
M  ZZI  44 215
M  ZZM  45 1
M  ZZI  45 111
M  ZZM  46 5
M  ZZI  46 1
M  ZZM  47 5
M  ZZI  47 1
M  ZZM  48 5
M  ZZI  48 1
M  ZZM  49 63
M  ZZI  49 104
M  ZZM  50 1
M  ZZI  50 111
M  ZZM  51 5
M  ZZI  51 1
M  ZZM  52 5
M  ZZI  52 1
M  ZZM  53 5
M  ZZI  53 1
M  END
> <NAME>
Z444991632

> <Score>
-25.35497

> <Natom>
53

> <Nflex>
7

> <Hbond>
-2.503178

> <Hphob>
-7.768549

> <VwInt>
-29.15206

> <Eintl>
8.920439

> <Dsolv>
8.012218

> <SolEl>
7.766506

> <mfScore>
-107.970755

> <RecConf>
1

> <molLogP>
2.744389

$$$$
Z730794902
  MOLSOFT 11211612053D

 54 57  0  0  1  0  0  0  0  0999 V2000
  -34.5466    9.4186   71.4435 H   0  0  0
  -33.5555    9.0017   71.2379 C   0  0  0
  -33.0895    8.7570   72.1978 H   0  0  0
  -33.7109    8.0578   70.7102 H   0  0  0
  -32.7003    9.9874   70.4304 C   0  0  0
  -31.3422    9.3504   70.1029 C   0  0  0
  -30.7519    9.1774   71.0088 H   0  0  0
  -30.7439    9.9760   69.4371 H   0  0  0
  -31.4621    8.3860   69.5989 H   0  0  0
  -32.4204   11.2002   71.3363 C   0  0  0
  -33.3448   11.7082   71.6340 H   0  0  0
  -31.7969   11.9435   70.8289 H   0  0  0
  -31.8914   10.9163   72.2526 H   0  0  0
  -33.4227   10.4158   69.1784 C   0  0  0
  -33.8193    9.6749   68.0085 C   0  0  0
  -34.4184   10.6221   67.2059 C   0  0  0
  -34.8551   10.5649   66.2194 H   0  0  0
  -34.3570   11.8020   67.8797 N   0  0  0
  -34.7036   12.7087   67.5983 H   0  0  0
  -33.7686   11.7053   69.0762 N   0  0  0
  -33.5674    8.2380   67.6728 C   0  0  1
  -33.4417    7.6735   68.5984 H   0  0  0
  -34.7015    7.6311   66.9843 N   0  0  0
  -34.8136    7.5746   65.6038 C   0  0  0
  -35.8131    7.2001   65.0035 O   0  0  0
  -33.6059    7.9257   64.8370 C   0  0  0
  -32.4250    8.1337   65.5192 C   0  0  0
  -32.3584    8.0269   66.9131 N   0  0  0
  -31.4728    8.2487   67.3570 H   0  0  0
  -31.2759    8.3826   64.7970 C   0  0  0
  -30.3336    8.5404   65.3115 H   0  0  0
  -31.3065    8.4135   63.4206 C   0  0  0
  -30.3940    8.5923   62.8610 H   0  0  0
  -32.4870    8.1771   62.7546 C   0  0  0
  -32.4911    8.1509   61.6732 H   0  0  0
  -33.6484    7.9375   63.4543 C   0  0  0
  -34.5675    7.7365   62.9126 H   0  0  0
  -35.7558    7.0317   67.7942 C   0  0  0
  -35.8846    7.6350   68.6985 H   0  0  0
  -36.7052    7.0671   67.2491 H   0  0  0
  -35.4518    5.5934   68.1384 C   0  0  0
  -35.2405    5.2052   69.4532 C   0  0  0
  -35.3084    5.9319   70.2571 H   0  0  0
  -34.9289    3.8948   69.7616 C   0  0  0
  -34.7634    3.6223   70.7994 H   0  0  0
  -34.8180    2.9398   68.7643 C   0  0  0
  -34.4680    1.5175   69.0842 C   0  0  0
  -33.6339    1.1832   68.4589 H   0  0  0
  -35.3306    0.8660   68.9118 H   0  0  0
  -34.1632    1.4112   70.1295 H   0  0  0
  -35.0552    3.3169   67.4552 C   0  0  0
  -34.9921    2.5844   66.6559 H   0  0  0
  -35.3709    4.6228   67.1477 C   0  0  0
  -35.5501    4.8789   66.1087 H   0  0  0
  2  1  1
  2  3  1
  2  4  1
  2  5  1
  5  6  1
  5 10  1
  5 14  1
  6  7  1
  6  8  1
  6  9  1
 10 11  1
 10 12  1
 10 13  1
 14 15  1
 14 20  2
 15 16  2
 21 15  1
 16 17  1
 16 18  1
 18 19  1
 18 20  1
 21 22  1
 21 23  1
 21 28  1
 23 24  1
 23 38  1
 24 25  2
 24 26  1
 26 27  2
 26 36  1
 27 28  1
 27 30  1
 28 29  1
 30 31  1
 30 32  2
 32 33  1
 32 34  1
 34 35  1
 34 36  2
 36 37  1
 38 39  1
 38 40  1
 38 41  1
 41 42  1
 41 53  2
 42 43  1
 42 44  2
 44 45  1
 44 46  1
 46 47  1
 46 51  2
 47 48  1
 47 49  1
 47 50  1
 51 52  1
 51 53  1
 53 54  1
M  ZZC   1 h1
M  ZZC   2 c23
M  ZZC   3 h2
M  ZZC   4 h3
M  ZZC   5 c20
M  ZZC   6 c21
M  ZZC   7 h7
M  ZZC   8 h8
M  ZZC   9 h9
M  ZZC  10 c22
M  ZZC  11 h4
M  ZZC  12 h5
M  ZZC  13 h6
M  ZZC  14 c19
M  ZZC  15 c17
M  ZZC  16 c18
M  ZZC  17 h10
M  ZZC  18 n3
M  ZZC  19 h25
M  ZZC  20 n4
M  ZZC  21 c9
M  ZZC  22 h26
M  ZZC  23 n1
M  ZZC  24 c16
M  ZZC  25 o1
M  ZZC  26 c15
M  ZZC  27 c10
M  ZZC  28 n2
M  ZZC  29 h15
M  ZZC  30 c11
M  ZZC  31 h14
M  ZZC  32 c12
M  ZZC  33 h13
M  ZZC  34 c13
M  ZZC  35 h12
M  ZZC  36 c14
M  ZZC  37 h11
M  ZZC  38 c8
M  ZZC  39 h16
M  ZZC  40 h17
M  ZZC  41 c5
M  ZZC  42 c4
M  ZZC  43 h20
M  ZZC  44 c3
M  ZZC  45 h21
M  ZZC  46 c2
M  ZZC  47 c1
M  ZZC  48 h22
M  ZZC  49 h23
M  ZZC  50 h24
M  ZZC  51 c7
M  ZZC  52 h18
M  ZZC  53 c6
M  ZZC  54 h19
M  ZZM   1 5
M  ZZI   1 1
M  ZZM   2 1
M  ZZI   2 111
M  ZZM   3 5
M  ZZI   3 1
M  ZZM   4 5
M  ZZI   4 1
M  ZZM   5 1
M  ZZI   5 110
M  ZZM   6 1
M  ZZI   6 111
M  ZZM   7 5
M  ZZI   7 1
M  ZZM   8 5
M  ZZI   8 1
M  ZZM   9 5
M  ZZI   9 1
M  ZZM  10 1
M  ZZI  10 111
M  ZZM  11 5
M  ZZI  11 1
M  ZZM  12 5
M  ZZI  12 1
M  ZZM  13 5
M  ZZI  13 1
M  ZZM  14 64
M  ZZI  14 105
M  ZZM  15 64
M  ZZI  15 105
M  ZZM  16 63
M  ZZI  16 104
M  ZZM  17 5
M  ZZI  17 1
M  ZZM  18 39
M  ZZI  18 215
M  ZZM  19 23
M  ZZI  19 10
M  ZZM  20 65
M  ZZI  20 207
M  ZZM  21 1
M  ZZI  21 113
M  ZZM  22 5
M  ZZI  22 1
M  ZZM  23 10
M  ZZI  23 192
M  ZZM  24 3
M  ZZI  24 121
M  ZZM  25 7
M  ZZI  25 81
M  ZZM  26 37
M  ZZI  26 124
M  ZZM  27 37
M  ZZI  27 124
M  ZZM  28 40
M  ZZI  28 194
M  ZZM  29 28
M  ZZI  29 11
M  ZZM  30 37
M  ZZI  30 125
M  ZZM  31 5
M  ZZI  31 1
M  ZZM  32 37
M  ZZI  32 125
M  ZZM  33 5
M  ZZI  33 1
M  ZZM  34 37
M  ZZI  34 125
M  ZZM  35 5
M  ZZI  35 1
M  ZZM  36 37
M  ZZI  36 125
M  ZZM  37 5
M  ZZI  37 1
M  ZZM  38 1
M  ZZI  38 112
M  ZZM  39 5
M  ZZI  39 1
M  ZZM  40 5
M  ZZI  40 1
M  ZZM  41 37
M  ZZI  41 124
M  ZZM  42 37
M  ZZI  42 125
M  ZZM  43 5
M  ZZI  43 1
M  ZZM  44 37
M  ZZI  44 125
M  ZZM  45 5
M  ZZI  45 1
M  ZZM  46 37
M  ZZI  46 124
M  ZZM  47 1
M  ZZI  47 111
M  ZZM  48 5
M  ZZI  48 1
M  ZZM  49 5
M  ZZI  49 1
M  ZZM  50 5
M  ZZI  50 1
M  ZZM  51 37
M  ZZI  51 125
M  ZZM  52 5
M  ZZI  52 1
M  ZZM  53 37
M  ZZI  53 125
M  ZZM  54 5
M  ZZI  54 1
M  END
> <NAME>
Z730794902

> <Score>
-28.808407

> <Natom>
54

> <Nflex>
4

> <Hbond>
-3.583724

> <Hphob>
-7.535482

> <VwInt>
-33.368111

> <Eintl>
4.493556

> <Dsolv>
12.712725

> <SolEl>
10.213265

> <mfScore>
-107.933702

> <RecConf>
1

> <molLogP>
4.717036

$$$$
Z87588389
  MOLSOFT 11211612053D

 54 57  0  0  0  0  0  0  0  0999 V2000
  -34.6820   13.0350   68.6828 H   0  0  0
  -33.9192   12.6233   69.1225 O   0  0  0
  -33.5897   11.5015   68.4598 C   0  0  0
  -32.4893   10.8006   69.1041 C   0  0  0
  -32.0426    9.6734   68.4675 C   0  0  0
  -30.9930    8.9567   69.0157 C   0  0  0
  -30.5971    8.0791   68.5218 H   0  0  0
  -30.4460    9.3648   70.2162 C   0  0  0
  -29.6554    8.7790   70.6683 H   0  0  0
  -30.9058   10.5006   70.8538 C   0  0  0
  -30.4594   10.8161   71.7917 H   0  0  0
  -31.9317   11.2363   70.2965 C   0  0  0
  -32.2856   12.1318   70.7992 H   0  0  0
  -32.7168    9.2245   67.2304 C   0  0  0
  -32.3075    8.2111   66.6810 O   0  0  0
  -33.8045    9.9800   66.7915 N   0  0  0
  -34.2252   11.1434   67.3952 N   0  0  0
  -34.5907    9.5548   65.6407 C   0  0  0
  -34.0250    8.8207   65.0581 H   0  0  0
  -34.7279   10.4355   65.0066 H   0  0  0
  -35.9505    8.9982   66.0588 C   0  0  0
  -36.7186    9.3116   65.3441 H   0  0  0
  -36.2656    9.3532   67.0456 H   0  0  0
  -35.9248    7.4907   66.0409 C   0  0  0
  -36.2663    6.8900   65.0341 O   0  0  0
  -35.4963    6.9244   67.2304 N   0  0  0
  -35.3310    7.5406   68.0177 H   0  0  0
  -35.3150    5.5349   67.4478 C   0  0  0
  -35.3771    4.5976   66.4264 C   0  0  0
  -35.5584    4.8937   65.4012 H   0  0  0
  -35.1783    3.2565   66.6854 C   0  0  0
  -35.2074    2.5422   65.8700 H   0  0  0
  -34.9453    2.8155   67.9692 C   0  0  0
  -34.8058    1.7527   68.1463 H   0  0  0
  -34.9037    3.7437   68.9957 C   0  0  0
  -35.0542    5.1031   68.7371 C   0  0  0
  -34.9852    5.8361   69.5323 H   0  0  0
  -34.6047    3.1683   70.6880 S   0  0  0
  -34.0259    1.8464   70.5721 O   0  0  0
  -33.8617    4.2276   71.3456 O   0  0  0
  -36.1090    3.0728   71.2679 N   0  0  0
  -36.6083    2.1930   71.2297 H   0  0  0
  -36.7155    4.1323   71.7618 C   0  3  0
  -38.1014    4.0711   72.2259 C   0  0  0
  -38.1366    3.7218   73.2624 H   0  0  0
  -38.7194    3.4093   71.6194 H   0  0  0
  -38.5368    5.5165   72.1218 C   0  0  0
  -38.8871    5.7141   71.1038 H   0  0  0
  -39.3369    5.7911   72.8149 H   0  0  0
  -37.2524    6.2817   72.3570 C   0  0  0
  -37.2034    7.2046   71.7771 H   0  0  0
  -37.0831    6.5068   73.4072 H   0  0  0
  -36.2332    5.3475   71.9040 N   0  0  0
  -35.2486    5.5405   71.7373 H   0  0  0
  2  1  1
  2  3  1
  3  4  1
  3 17  2
  4  5  2
  4 12  1
  5  6  1
  5 14  1
  6  7  1
  6  8  2
  8  9  1
  8 10  1
 10 11  1
 10 12  2
 12 13  1
 14 15  2
 14 16  1
 16 17  1
 16 18  1
 18 19  1
 18 20  1
 18 21  1
 21 22  1
 21 23  1
 21 24  1
 24 25  2
 24 26  1
 26 27  1
 26 28  1
 28 29  2
 28 36  1
 29 30  1
 29 31  1
 31 32  1
 31 33  2
 33 34  1
 33 35  1
 35 36  2
 35 38  1
 36 37  1
 38 39  2
 38 40  2
 38 41  1
 41 42  1
 41 43  1
 43 44  1
 43 53  1
 44 45  1
 44 46  1
 44 47  1
 47 48  1
 47 49  1
 47 50  1
 50 51  1
 50 52  1
 50 53  1
 53 54  1
M  ZZC   1 h01
M  ZZC   2 o1
M  ZZC   3 c7
M  ZZC   4 c5
M  ZZC   5 c4
M  ZZC   6 c3
M  ZZC   7 h19
M  ZZC   8 c2
M  ZZC   9 h20
M  ZZC  10 c1
M  ZZC  11 h21
M  ZZC  12 c6
M  ZZC  13 h18
M  ZZC  14 c8
M  ZZC  15 o2
M  ZZC  16 n2
M  ZZC  17 n1
M  ZZC  18 c9
M  ZZC  19 h16
M  ZZC  20 h17
M  ZZC  21 c10
M  ZZC  22 h14
M  ZZC  23 h15
M  ZZC  24 c11
M  ZZC  25 o3
M  ZZC  26 n3
M  ZZC  27 h13
M  ZZC  28 c12
M  ZZC  29 c13
M  ZZC  30 h12
M  ZZC  31 c14
M  ZZC  32 h11
M  ZZC  33 c15
M  ZZC  34 h10
M  ZZC  35 c16
M  ZZC  36 c17
M  ZZC  37 h9
M  ZZC  38 s1
M  ZZC  39 o4
M  ZZC  40 o5
M  ZZC  41 n4
M  ZZC  42 h8
M  ZZC  43 c18
M  ZZC  44 c21
M  ZZC  45 h2
M  ZZC  46 h3
M  ZZC  47 c20
M  ZZC  48 h4
M  ZZC  49 h5
M  ZZC  50 c19
M  ZZC  51 h6
M  ZZC  52 h7
M  ZZC  53 n5
M  ZZC  54 h1
M  ZZM   1 29
M  ZZI   1 27
M  ZZM   2 6
M  ZZI   2 60
M  ZZM   3 3
M  ZZI   3 121
M  ZZM   4 37
M  ZZI   4 124
M  ZZM   5 37
M  ZZI   5 124
M  ZZM   6 37
M  ZZI   6 125
M  ZZM   7 5
M  ZZI   7 1
M  ZZM   8 37
M  ZZI   8 125
M  ZZM   9 5
M  ZZI   9 1
M  ZZM  10 37
M  ZZI  10 125
M  ZZM  11 5
M  ZZI  11 1
M  ZZM  12 37
M  ZZI  12 125
M  ZZM  13 5
M  ZZI  13 1
M  ZZM  14 3
M  ZZI  14 121
M  ZZM  15 7
M  ZZI  15 81
M  ZZM  16 10
M  ZZI  16 192
M  ZZM  17 9
M  ZZI  17 220
M  ZZM  18 1
M  ZZI  18 112
M  ZZM  19 5
M  ZZI  19 1
M  ZZM  20 5
M  ZZI  20 1
M  ZZM  21 1
M  ZZI  21 112
M  ZZM  22 5
M  ZZI  22 1
M  ZZM  23 5
M  ZZI  23 1
M  ZZM  24 3
M  ZZI  24 121
M  ZZM  25 7
M  ZZI  25 81
M  ZZM  26 10
M  ZZI  26 191
M  ZZM  27 28
M  ZZI  27 11
M  ZZM  28 37
M  ZZI  28 124
M  ZZM  29 37
M  ZZI  29 125
M  ZZM  30 5
M  ZZI  30 1
M  ZZM  31 37
M  ZZI  31 125
M  ZZM  32 5
M  ZZI  32 1
M  ZZM  33 37
M  ZZI  33 125
M  ZZM  34 5
M  ZZI  34 1
M  ZZM  35 37
M  ZZI  35 124
M  ZZM  36 37
M  ZZI  36 125
M  ZZM  37 5
M  ZZI  37 1
M  ZZM  38 18
M  ZZI  38 250
M  ZZM  39 32
M  ZZI  39 73
M  ZZM  40 32
M  ZZI  40 73
M  ZZM  41 55
M  ZZI  41 203
M  ZZM  42 36
M  ZZI  42 17
M  ZZM  43 57
M  ZZI  43 103
M  ZZM  44 1
M  ZZI  44 112
M  ZZM  45 5
M  ZZI  45 1
M  ZZM  46 5
M  ZZI  46 1
M  ZZM  47 1
M  ZZI  47 112
M  ZZM  48 5
M  ZZI  48 1
M  ZZM  49 5
M  ZZI  49 1
M  ZZM  50 1
M  ZZI  50 112
M  ZZM  51 5
M  ZZI  51 1
M  ZZM  52 5
M  ZZI  52 1
M  ZZM  53 55
M  ZZI  53 203
M  ZZM  54 36
M  ZZI  54 17
M  CHG  1  43   1
M  END
> <NAME>
Z87588389

> <Score>
-28.53797

> <Natom>
54

> <Nflex>
6

> <Hbond>
-4.643079

> <Hphob>
-6.405074

> <VwInt>
-34.04733

> <Eintl>
9.447942

> <Dsolv>
16.95226

> <SolEl>
7.929628

> <mfScore>
-79.269435

> <RecConf>
1

> <molLogP>
1.608391

$$$$
Z1269514125
  MOLSOFT 11211612053D

 54 56  0  0  1  0  0  0  0  0999 V2000
  -33.4776    0.8118   67.6970 H   0  0  0
  -33.9902    1.7607   67.8007 C   0  0  0
  -34.2404    2.2613   69.0479 C   0  0  0
  -33.9498    1.7354   69.9511 H   0  0  0
  -34.8816    3.4676   69.0724 C   0  0  0
  -35.1106    3.9280   70.0252 H   0  0  0
  -35.2092    4.0494   67.8560 C   0  0  0
  -34.9148    3.4602   66.6766 N   0  0  0
  -34.3183    2.3423   66.6412 N   0  0  0
  -35.8734    5.3069   67.8322 N   0  0  0
  -36.3753    5.9027   69.0683 C   0  0  0
  -36.9046    6.8304   68.8524 H   0  0  0
  -35.5557    6.1461   69.7508 H   0  0  0
  -37.0832    5.2353   69.5701 H   0  0  0
  -36.1984    5.9318   66.5368 C   0  0  0
  -36.7483    5.2197   65.9132 H   0  0  0
  -36.9003    6.7600   66.6804 H   0  0  0
  -34.9760    6.4434   65.7637 C   0  0  2
  -34.3221    5.6022   65.5159 H   0  0  0
  -34.1879    7.5040   66.5381 C   0  0  0
  -33.8378    7.0889   67.4879 H   0  0  0
  -34.8422    8.3562   66.7564 H   0  0  0
  -33.0297    7.9439   65.7359 N   0  0  0
  -33.4822    8.4531   64.4271 C   0  0  0
  -32.6228    8.7087   63.7985 H   0  0  0
  -34.0926    9.3546   64.5523 H   0  0  0
  -34.3222    7.3979   63.7195 C   0  0  0
  -33.7248    6.5133   63.4760 H   0  0  0
  -34.7068    7.7955   62.7782 H   0  0  0
  -35.4442    7.0164   64.5304 O   0  0  0
  -32.1199    8.8734   66.4530 C   0  0  0
  -31.6998    8.3819   67.3301 H   0  0  0
  -31.2521    9.0900   65.8221 H   0  0  0
  -32.7723   10.2140   66.8100 C   0  0  0
  -32.8906   11.0699   65.9441 O   0  0  0
  -33.2238   10.4244   68.1159 N   0  0  0
  -32.9715    9.5626   69.2759 C   0  0  2
  -32.3808    8.7020   68.9643 H   0  0  0
  -34.2658    9.0132   69.8773 C   0  0  0
  -34.8470    9.7851   70.3852 H   0  0  0
  -34.0514    8.2329   70.6134 H   0  0  0
  -34.9151    8.5918   69.1073 H   0  0  0
  -32.1513   10.3330   70.3131 C   0  0  0
  -31.1485   10.5120   69.9088 H   0  0  0
  -32.0176    9.7346   71.2201 H   0  0  0
  -32.7775   11.6802   70.6648 C   0  0  0
  -32.0961   12.2477   71.3063 H   0  0  0
  -33.6932   11.5316   71.2454 H   0  0  0
  -33.0912   12.4891   69.4140 C   0  0  0
  -32.1561   12.8143   68.9514 H   0  0  0
  -33.6427   13.3903   69.6834 H   0  0  0
  -33.8884   11.6862   68.4024 C   0  0  0
  -34.0191   12.2718   67.4881 H   0  0  0
  -34.8887   11.4547   68.7759 H   0  0  0
  2  1  1
  2  3  1
  2  9  2
  3  4  1
  3  5  2
  5  6  1
  5  7  1
  7  8  2
  7 10  1
  8  9  1
 10 11  1
 10 15  1
 11 12  1
 11 13  1
 11 14  1
 15 16  1
 15 17  1
 18 15  1
 18 19  1
 18 20  1
 18 30  1
 20 21  1
 20 22  1
 20 23  1
 23 24  1
 23 31  1
 24 25  1
 24 26  1
 24 27  1
 27 28  1
 27 29  1
 27 30  1
 31 32  1
 31 33  1
 31 34  1
 34 35  2
 34 36  1
 37 36  1
 36 52  1
 37 38  1
 37 39  1
 37 43  1
 39 40  1
 39 41  1
 39 42  1
 43 44  1
 43 45  1
 43 46  1
 46 47  1
 46 48  1
 46 49  1
 49 50  1
 49 51  1
 49 52  1
 52 53  1
 52 54  1
M  ZZC   1 h1
M  ZZC   2 c18
M  ZZC   3 c17
M  ZZC   4 h2
M  ZZC   5 c16
M  ZZC   6 h3
M  ZZC   7 c15
M  ZZC   8 n5
M  ZZC   9 n4
M  ZZC  10 n3
M  ZZC  11 c14
M  ZZC  12 h4
M  ZZC  13 h5
M  ZZC  14 h6
M  ZZC  15 c13
M  ZZC  16 h7
M  ZZC  17 h8
M  ZZC  18 c11
M  ZZC  19 h28
M  ZZC  20 c12
M  ZZC  21 h10
M  ZZC  22 h9
M  ZZC  23 n2
M  ZZC  24 c9
M  ZZC  25 h13
M  ZZC  26 h14
M  ZZC  27 c10
M  ZZC  28 h11
M  ZZC  29 h12
M  ZZC  30 o2
M  ZZC  31 c8
M  ZZC  32 h15
M  ZZC  33 h16
M  ZZC  34 c7
M  ZZC  35 o1
M  ZZC  36 n1
M  ZZC  37 c2
M  ZZC  38 h29
M  ZZC  39 c1
M  ZZC  40 h25
M  ZZC  41 h26
M  ZZC  42 h27
M  ZZC  43 c3
M  ZZC  44 h23
M  ZZC  45 h24
M  ZZC  46 c4
M  ZZC  47 h21
M  ZZC  48 h22
M  ZZC  49 c5
M  ZZC  50 h19
M  ZZC  51 h20
M  ZZC  52 c6
M  ZZC  53 h17
M  ZZC  54 h18
M  ZZM   1 5
M  ZZI   1 1
M  ZZM   2 37
M  ZZI   2 125
M  ZZM   3 37
M  ZZI   3 125
M  ZZM   4 5
M  ZZI   4 1
M  ZZM   5 37
M  ZZI   5 125
M  ZZM   6 5
M  ZZI   6 1
M  ZZM   7 37
M  ZZI   7 124
M  ZZM   8 38
M  ZZI   8 223
M  ZZM   9 38
M  ZZI   9 223
M  ZZM  10 40
M  ZZI  10 193
M  ZZM  11 1
M  ZZI  11 111
M  ZZM  12 5
M  ZZI  12 1
M  ZZM  13 5
M  ZZI  13 1
M  ZZM  14 5
M  ZZI  14 1
M  ZZM  15 1
M  ZZI  15 112
M  ZZM  16 5
M  ZZI  16 1
M  ZZM  17 5
M  ZZI  17 1
M  ZZM  18 1
M  ZZI  18 113
M  ZZM  19 5
M  ZZI  19 1
M  ZZM  20 1
M  ZZI  20 112
M  ZZM  21 5
M  ZZI  21 1
M  ZZM  22 5
M  ZZI  22 1
M  ZZM  23 8
M  ZZI  23 216
M  ZZM  24 1
M  ZZI  24 112
M  ZZM  25 5
M  ZZI  25 1
M  ZZM  26 5
M  ZZI  26 1
M  ZZM  27 1
M  ZZI  27 112
M  ZZM  28 5
M  ZZI  28 1
M  ZZM  29 5
M  ZZI  29 1
M  ZZM  30 6
M  ZZI  30 65
M  ZZM  31 1
M  ZZI  31 112
M  ZZM  32 5
M  ZZI  32 1
M  ZZM  33 5
M  ZZI  33 1
M  ZZM  34 3
M  ZZI  34 121
M  ZZM  35 7
M  ZZI  35 81
M  ZZM  36 10
M  ZZI  36 192
M  ZZM  37 1
M  ZZI  37 113
M  ZZM  38 5
M  ZZI  38 1
M  ZZM  39 1
M  ZZI  39 111
M  ZZM  40 5
M  ZZI  40 1
M  ZZM  41 5
M  ZZI  41 1
M  ZZM  42 5
M  ZZI  42 1
M  ZZM  43 1
M  ZZI  43 112
M  ZZM  44 5
M  ZZI  44 1
M  ZZM  45 5
M  ZZI  45 1
M  ZZM  46 1
M  ZZI  46 112
M  ZZM  47 5
M  ZZI  47 1
M  ZZM  48 5
M  ZZI  48 1
M  ZZM  49 1
M  ZZI  49 112
M  ZZM  50 5
M  ZZI  50 1
M  ZZM  51 5
M  ZZI  51 1
M  ZZM  52 1
M  ZZI  52 112
M  ZZM  53 5
M  ZZI  53 1
M  ZZM  54 5
M  ZZI  54 1
M  END
> <NAME>
Z1269514125

> <Score>
-25.647897

> <Natom>
54

> <Nflex>
5

> <Hbond>
-2.972886

> <Hphob>
-7.857691

> <VwInt>
-28.580226

> <Eintl>
7.635546

> <Dsolv>
12.040739

> <SolEl>
5.587619

> <mfScore>
-93.692533

> <RecConf>
1

> <molLogP>
0.335053

$$$$
Z50971473
  MOLSOFT 11211612053D

 54 58  0  0  1  0  0  0  0  0999 V2000
  -36.2034    6.4626   67.6073 H   0  0  0
  -35.8088    5.4524   67.6522 C   0  0  0
  -35.4557    4.7903   66.4927 C   0  0  0
  -35.5788    5.2784   65.5320 H   0  0  0
  -34.9371    3.5112   66.5548 C   0  0  0
  -34.6574    2.9933   65.6438 H   0  0  0
  -34.7781    2.8815   67.7731 C   0  0  0
  -34.3828    1.8716   67.8146 H   0  0  0
  -35.1358    3.5341   68.9353 C   0  0  0
  -35.6329    4.8324   68.8729 C   0  0  0
  -35.9583    5.5694   70.0022 O   0  0  0
  -35.2355    5.0113   71.1018 C   0  0  2
  -34.1651    5.1389   70.9110 H   0  0  0
  -35.5821    3.5370   71.1985 C   0  0  0
  -36.6652    3.3640   71.1733 H   0  0  0
  -35.1934    3.1071   72.1268 H   0  0  0
  -34.9758    2.8231   70.1206 O   0  0  0
  -35.6209    5.7604   72.3796 C   0  0  0
  -36.7053    5.7359   72.5312 H   0  0  0
  -35.1351    5.3079   73.2505 H   0  0  0
  -35.2433    7.1622   72.3437 N   0  0  0
  -35.9849    7.8428   72.1921 H   0  0  0
  -33.9251    7.5864   72.3941 C   0  0  0
  -32.9595    6.8371   72.4537 O   0  0  0
  -33.7825    9.0950   72.2776 C   0  0  0
  -34.7676    9.5654   72.3001 H   0  0  0
  -33.1888    9.4700   73.1170 H   0  0  0
  -33.1468    9.4291   71.0130 N   0  0  0
  -33.7414    9.2217   69.7965 C   0  0  0
  -34.8367    8.7129   69.6068 O   0  0  0
  -32.7972    9.7078   68.7153 C   0  0  2
  -32.3280    8.8484   68.2234 H   0  0  0
  -31.7928   10.3406   69.5415 N   0  0  0
  -30.9984   10.8618   69.1857 H   0  0  0
  -31.9896   10.1298   70.8659 C   0  0  0
  -31.2553   10.5380   71.7494 O   0  0  0
  -33.4877   10.6602   67.7409 C   0  0  0
  -32.7444   11.3087   67.2648 H   0  0  0
  -34.1733   11.3281   68.2749 H   0  0  0
  -34.2246    9.9056   66.6949 C   0  0  0
  -33.6625    9.2438   65.5647 C   0  0  0
  -34.7011    8.6438   64.8714 C   0  0  0
  -35.8586    8.9216   65.5519 N   0  0  0
  -36.7871    8.6092   65.2923 H   0  0  0
  -35.5786    9.6561   66.6656 C   0  0  0
  -36.3634    9.9238   67.3571 H   0  0  0
  -34.5006    7.9113   63.7182 C   0  0  0
  -35.3168    7.4531   63.1753 H   0  0  0
  -33.2056    7.7898   63.2663 C   0  0  0
  -33.0113    7.2323   62.3578 H   0  0  0
  -32.1536    8.3653   63.9405 C   0  0  0
  -31.1449    8.2454   63.5572 H   0  0  0
  -32.3644    9.0884   65.0940 C   0  0  0
  -31.5237    9.5207   65.6243 H   0  0  0
  2  1  1
  2  3  1
  2 10  2
  3  4  1
  3  5  2
  5  6  1
  5  7  1
  7  8  1
  7  9  2
  9 10  1
  9 17  1
 10 11  1
 12 11  1
 12 13  1
 12 14  1
 12 18  1
 14 15  1
 14 16  1
 14 17  1
 18 19  1
 18 20  1
 18 21  1
 21 22  1
 21 23  1
 23 24  2
 23 25  1
 25 26  1
 25 27  1
 25 28  1
 28 29  1
 28 35  1
 29 30  2
 31 29  1
 31 32  1
 31 33  1
 31 37  1
 33 34  1
 33 35  1
 35 36  2
 37 38  1
 37 39  1
 37 40  1
 40 41  1
 40 45  2
 41 42  2
 41 53  1
 42 43  1
 42 47  1
 43 44  1
 43 45  1
 45 46  1
 47 48  1
 47 49  2
 49 50  1
 49 51  1
 51 52  1
 51 53  2
 53 54  1
M  ZZC   1 h1
M  ZZC   2 c22
M  ZZC   3 c21
M  ZZC   4 h2
M  ZZC   5 c20
M  ZZC   6 h3
M  ZZC   7 c19
M  ZZC   8 h4
M  ZZC   9 c18
M  ZZC  10 c23
M  ZZC  11 o5
M  ZZC  12 c16
M  ZZC  13 h20
M  ZZC  14 c17
M  ZZC  15 h5
M  ZZC  16 h6
M  ZZC  17 o4
M  ZZC  18 c15
M  ZZC  19 h7
M  ZZC  20 h8
M  ZZC  21 n4
M  ZZC  22 h9
M  ZZC  23 c14
M  ZZC  24 o3
M  ZZC  25 c13
M  ZZC  26 h10
M  ZZC  27 h11
M  ZZC  28 n2
M  ZZC  29 c11
M  ZZC  30 o1
M  ZZC  31 c10
M  ZZC  32 h21
M  ZZC  33 n3
M  ZZC  34 h12
M  ZZC  35 c12
M  ZZC  36 o2
M  ZZC  37 c9
M  ZZC  38 h13
M  ZZC  39 h14
M  ZZC  40 c7
M  ZZC  41 c5
M  ZZC  42 c4
M  ZZC  43 n1
M  ZZC  44 h22
M  ZZC  45 c8
M  ZZC  46 h15
M  ZZC  47 c3
M  ZZC  48 h17
M  ZZC  49 c2
M  ZZC  50 h18
M  ZZC  51 c1
M  ZZC  52 h19
M  ZZC  53 c6
M  ZZC  54 h16
M  ZZM   1 5
M  ZZI   1 1
M  ZZM   2 37
M  ZZI   2 125
M  ZZM   3 37
M  ZZI   3 125
M  ZZM   4 5
M  ZZI   4 1
M  ZZM   5 37
M  ZZI   5 125
M  ZZM   6 5
M  ZZI   6 1
M  ZZM   7 37
M  ZZI   7 125
M  ZZM   8 5
M  ZZI   8 1
M  ZZM   9 37
M  ZZI   9 124
M  ZZM  10 37
M  ZZI  10 124
M  ZZM  11 6
M  ZZI  11 59
M  ZZM  12 1
M  ZZI  12 113
M  ZZM  13 5
M  ZZI  13 1
M  ZZM  14 1
M  ZZI  14 112
M  ZZM  15 5
M  ZZI  15 1
M  ZZM  16 5
M  ZZI  16 1
M  ZZM  17 6
M  ZZI  17 59
M  ZZM  18 1
M  ZZI  18 112
M  ZZM  19 5
M  ZZI  19 1
M  ZZM  20 5
M  ZZI  20 1
M  ZZM  21 10
M  ZZI  21 211
M  ZZM  22 28
M  ZZI  22 11
M  ZZM  23 3
M  ZZI  23 121
M  ZZM  24 7
M  ZZI  24 81
M  ZZM  25 1
M  ZZI  25 112
M  ZZM  26 5
M  ZZI  26 1
M  ZZM  27 5
M  ZZI  27 1
M  ZZM  28 10
M  ZZI  28 192
M  ZZM  29 3
M  ZZI  29 121
M  ZZM  30 7
M  ZZI  30 81
M  ZZM  31 1
M  ZZI  31 113
M  ZZM  32 5
M  ZZI  32 1
M  ZZM  33 10
M  ZZI  33 211
M  ZZM  34 28
M  ZZI  34 11
M  ZZM  35 3
M  ZZI  35 121
M  ZZM  36 7
M  ZZI  36 81
M  ZZM  37 1
M  ZZI  37 112
M  ZZM  38 5
M  ZZI  38 1
M  ZZM  39 5
M  ZZI  39 1
M  ZZM  40 64
M  ZZI  40 105
M  ZZM  41 64
M  ZZI  41 105
M  ZZM  42 63
M  ZZI  42 104
M  ZZM  43 39
M  ZZI  43 215
M  ZZM  44 23
M  ZZI  44 10
M  ZZM  45 63
M  ZZI  45 104
M  ZZM  46 5
M  ZZI  46 1
M  ZZM  47 37
M  ZZI  47 125
M  ZZM  48 5
M  ZZI  48 1
M  ZZM  49 37
M  ZZI  49 125
M  ZZM  50 5
M  ZZI  50 1
M  ZZM  51 37
M  ZZI  51 125
M  ZZM  52 5
M  ZZI  52 1
M  ZZM  53 37
M  ZZI  53 125
M  ZZM  54 5
M  ZZI  54 1
M  END
> <NAME>
Z50971473

> <Score>
-25.416278

> <Natom>
54

> <Nflex>
6

> <Hbond>
-3.733719

> <Hphob>
-6.65563

> <VwInt>
-33.87756

> <Eintl>
8.9624

> <Dsolv>
14.452395

> <SolEl>
12.011463

> <mfScore>
-136.597925

> <RecConf>
1

> <molLogP>
1.879542

$$$$
Z136251592
  MOLSOFT 11211612053D

 54 57  0  0  1  0  0  0  0  0999 V2000
  -33.5041    8.1033   66.1619 H   0  0  0
  -33.6921    8.6938   65.3404 N   0  3  0
  -34.0994    7.7586   64.2245 C   0  0  0
  -35.0594    8.0584   63.7990 H   0  0  0
  -34.1619    6.7525   64.6493 H   0  0  0
  -32.9942    7.8375   63.2018 C   0  0  0
  -32.8629    6.8911   62.6796 H   0  0  0
  -33.2309    8.5876   62.4506 H   0  0  0
  -31.7890    8.2769   63.9823 C   0  0  0
  -31.3671    7.4429   64.5426 H   0  0  0
  -31.0048    8.6964   63.3447 H   0  0  0
  -32.3750    9.2905   64.9272 C   0  0  0
  -31.7552    9.4589   65.8142 H   0  0  0
  -32.5815   10.2266   64.3992 H   0  0  0
  -34.7367    9.7261   65.7751 C   0  0  2
  -34.9254   10.3516   64.8964 H   0  0  0
  -34.2406   10.6110   66.8843 C   0  0  0
  -34.5291   10.7460   68.2317 C   0  0  0
  -35.2555   10.1892   68.8042 H   0  0  0
  -33.6913   11.7682   68.7316 C   0  0  0
  -33.6333   12.1471   69.7420 H   0  0  0
  -32.9481   12.2051   67.6648 C   0  0  0
  -32.1795   12.9524   67.5504 H   0  0  0
  -33.2862   11.5251   66.5359 O   0  0  0
  -36.0652    9.0380   66.1707 C   0  0  0
  -36.7490    9.7491   66.6390 H   0  0  0
  -36.5828    8.6657   65.2828 H   0  0  0
  -35.8835    7.9383   67.1098 N   0  0  0
  -35.6158    8.1461   68.0662 H   0  0  0
  -36.0831    6.6265   66.7312 C   0  0  0
  -36.4928    6.3057   65.6244 O   0  0  0
  -35.6592    5.6325   67.7937 C   0  0  1
  -34.6542    5.9162   68.1335 H   0  0  0
  -36.6442    5.6065   68.9490 C   0  0  0
  -36.6696    6.5847   69.4311 H   0  0  0
  -37.6633    5.3997   68.6093 H   0  0  0
  -36.2800    4.6057   69.9420 N   0  0  0
  -36.7881    4.6358   71.2489 C   0  0  0
  -36.5228    3.8330   72.1313 O   0  0  0
  -37.7453    5.7609   71.5559 C   0  0  0
  -37.2028    6.7076   71.6323 H   0  0  0
  -38.2357    5.5678   72.5144 H   0  0  0
  -38.5254    5.8259   70.7937 H   0  0  0
  -35.4404    3.5502   69.4655 C   0  0  0
  -35.1319    3.4496   68.1064 C   0  0  0
  -35.5855    4.3567   67.1626 O   0  0  0
  -34.3666    2.4179   67.6082 C   0  0  0
  -34.1551    2.3603   66.5450 H   0  0  0
  -33.8550    1.4741   68.4661 C   0  0  0
  -33.2290    0.6806   68.0800 H   0  0  0
  -34.1387    1.5490   69.8112 C   0  0  0
  -33.7417    0.7978   70.4869 H   0  0  0
  -34.9256    2.5698   70.3077 C   0  0  0
  -35.1159    2.5774   71.3735 H   0  0  0
  2  1  1
  2  3  1
 15  2  1
  2 12  1
  3  4  1
  3  5  1
  3  6  1
  6  7  1
  6  8  1
  6  9  1
  9 10  1
  9 11  1
  9 12  1
 12 13  1
 12 14  1
 15 16  1
 15 17  1
 15 25  1
 17 18  2
 17 24  1
 18 19  1
 18 20  1
 20 21  1
 20 22  2
 22 23  1
 22 24  1
 25 26  1
 25 27  1
 25 28  1
 28 29  1
 28 30  1
 30 31  2
 32 30  1
 32 33  1
 32 34  1
 32 46  1
 34 35  1
 34 36  1
 34 37  1
 37 38  1
 37 44  1
 38 39  2
 38 40  1
 40 41  1
 40 42  1
 40 43  1
 44 45  1
 44 53  2
 45 46  1
 45 47  2
 47 48  1
 47 49  1
 49 50  1
 49 51  2
 51 52  1
 51 53  1
 53 54  1
M  ZZC   1 h1
M  ZZC   2 n3
M  ZZC   3 c18
M  ZZC   4 h8
M  ZZC   5 h9
M  ZZC   6 c19
M  ZZC   7 h6
M  ZZC   8 h7
M  ZZC   9 c20
M  ZZC  10 h4
M  ZZC  11 h5
M  ZZC  12 c21
M  ZZC  13 h2
M  ZZC  14 h3
M  ZZC  15 c13
M  ZZC  16 h25
M  ZZC  17 c14
M  ZZC  18 c15
M  ZZC  19 h12
M  ZZC  20 c16
M  ZZC  21 h11
M  ZZC  22 c17
M  ZZC  23 h10
M  ZZC  24 o4
M  ZZC  25 c12
M  ZZC  26 h13
M  ZZC  27 h14
M  ZZC  28 n2
M  ZZC  29 h15
M  ZZC  30 c11
M  ZZC  31 o3
M  ZZC  32 c4
M  ZZC  33 h26
M  ZZC  34 c3
M  ZZC  35 h20
M  ZZC  36 h21
M  ZZC  37 n1
M  ZZC  38 c2
M  ZZC  39 o1
M  ZZC  40 c1
M  ZZC  41 h22
M  ZZC  42 h23
M  ZZC  43 h24
M  ZZC  44 c6
M  ZZC  45 c5
M  ZZC  46 o2
M  ZZC  47 c10
M  ZZC  48 h16
M  ZZC  49 c9
M  ZZC  50 h17
M  ZZC  51 c8
M  ZZC  52 h18
M  ZZC  53 c7
M  ZZC  54 h19
M  ZZM   1 36
M  ZZI   1 17
M  ZZM   2 34
M  ZZI   2 231
M  ZZM   3 1
M  ZZI   3 112
M  ZZM   4 5
M  ZZI   4 1
M  ZZM   5 5
M  ZZI   5 1
M  ZZM   6 1
M  ZZI   6 112
M  ZZM   7 5
M  ZZI   7 1
M  ZZM   8 5
M  ZZI   8 1
M  ZZM   9 1
M  ZZI   9 112
M  ZZM  10 5
M  ZZI  10 1
M  ZZM  11 5
M  ZZI  11 1
M  ZZM  12 1
M  ZZI  12 112
M  ZZM  13 5
M  ZZI  13 1
M  ZZM  14 5
M  ZZI  14 1
M  ZZM  15 1
M  ZZI  15 113
M  ZZM  16 5
M  ZZI  16 1
M  ZZM  17 63
M  ZZI  17 104
M  ZZM  18 64
M  ZZI  18 105
M  ZZM  19 5
M  ZZI  19 1
M  ZZM  20 64
M  ZZI  20 105
M  ZZM  21 5
M  ZZI  21 1
M  ZZM  22 63
M  ZZI  22 104
M  ZZM  23 5
M  ZZI  23 1
M  ZZM  24 59
M  ZZI  24 56
M  ZZM  25 1
M  ZZI  25 112
M  ZZM  26 5
M  ZZI  26 1
M  ZZM  27 5
M  ZZI  27 1
M  ZZM  28 10
M  ZZI  28 211
M  ZZM  29 28
M  ZZI  29 11
M  ZZM  30 3
M  ZZI  30 121
M  ZZM  31 7
M  ZZI  31 81
M  ZZM  32 1
M  ZZI  32 113
M  ZZM  33 5
M  ZZI  33 1
M  ZZM  34 1
M  ZZI  34 112
M  ZZM  35 5
M  ZZI  35 1
M  ZZM  36 5
M  ZZI  36 1
M  ZZM  37 10
M  ZZI  37 192
M  ZZM  38 3
M  ZZI  38 121
M  ZZM  39 7
M  ZZI  39 81
M  ZZM  40 1
M  ZZI  40 111
M  ZZM  41 5
M  ZZI  41 1
M  ZZM  42 5
M  ZZI  42 1
M  ZZM  43 5
M  ZZI  43 1
M  ZZM  44 37
M  ZZI  44 124
M  ZZM  45 37
M  ZZI  45 124
M  ZZM  46 6
M  ZZI  46 59
M  ZZM  47 37
M  ZZI  47 125
M  ZZM  48 5
M  ZZI  48 1
M  ZZM  49 37
M  ZZI  49 125
M  ZZM  50 5
M  ZZI  50 1
M  ZZM  51 37
M  ZZI  51 125
M  ZZM  52 5
M  ZZI  52 1
M  ZZM  53 37
M  ZZI  53 125
M  ZZM  54 5
M  ZZI  54 1
M  CHG  1   2   1
M  END
> <NAME>
Z136251592

> <Score>
-25.276174

> <Natom>
54

> <Nflex>
6

> <Hbond>
-3.06821

> <Hphob>
-7.258533

> <VwInt>
-30.375294

> <Eintl>
8.969137

> <Dsolv>
8.560661

> <SolEl>
11.673353

> <mfScore>
-97.225878

> <RecConf>
1

> <molLogP>
0.696192

$$$$
Z131774724
  MOLSOFT 11211612053D

 54 57  0  0  0  0  0  0  0  0999 V2000
  -34.1112    8.5631   73.1844 O   0  0  0
  -34.5098    7.9178   72.2244 C   0  0  0
  -35.7629    7.1563   72.2314 C   0  0  0
  -36.4142    7.2247   73.0952 H   0  0  0
  -36.0097    6.4244   71.1411 C   0  0  0
  -37.3199    5.6860   71.0799 C   0  0  0
  -37.1925    4.6189   71.2796 H   0  0  0
  -37.8016    5.8085   70.1050 H   0  0  0
  -38.0252    6.0674   71.8247 H   0  0  0
  -35.1480    6.3928   70.0474 N   0  0  0
  -35.2233    5.4244   69.0060 C   0  0  0
  -35.1215    5.7907   67.6693 C   0  0  0
  -35.0232    7.0857   67.3382 F   0  0  0
  -35.1474    4.8693   66.6443 C   0  0  0
  -35.0776    5.2063   65.6159 H   0  0  0
  -35.2509    3.5275   66.9340 C   0  0  0
  -35.2614    2.7906   66.1369 H   0  0  0
  -35.3350    3.1282   68.2501 C   0  0  0
  -35.4049    2.0698   68.4835 H   0  0  0
  -35.3243    4.0611   69.2705 C   0  0  0
  -35.3520    3.7036   70.2944 H   0  0  0
  -34.0484    7.2102   69.9242 N   0  0  0
  -33.6975    7.9103   70.9653 C   0  0  0
  -32.3876    8.6585   70.8659 C   0  0  0
  -31.3766    7.9706   70.9257 O   0  0  0
  -32.4223   10.0453   70.7245 N   0  0  0
  -31.1467   10.7361   70.6197 C   0  0  0
  -31.2221   11.7430   71.0394 H   0  0  0
  -30.8371   10.8066   69.5724 H   0  0  0
  -30.4048   10.1835   71.2008 H   0  0  0
  -33.6336   10.8251   70.4743 C   0  0  0
  -34.4841   10.3346   70.9511 H   0  0  0
  -33.5249   11.8154   70.9292 H   0  0  0
  -33.8707   10.9244   69.0136 C   0  0  0
  -33.3274   11.8524   68.0893 C   0  0  0
  -32.6709   12.6890   68.2857 H   0  0  0
  -33.6627   11.5817   66.8228 N   0  0  0
  -34.4212   10.4666   66.9411 N   0  0  0
  -34.6576   10.1048   68.2396 C   0  0  0
  -35.2751    9.2535   68.4877 H   0  0  0
  -34.8049    9.6993   65.7578 C   0  0  0
  -35.5489    8.9545   66.0562 H   0  0  0
  -35.2789   10.4009   65.0675 H   0  0  0
  -33.6095    9.0490   65.1049 C   0  0  0
  -32.3961    8.8784   65.7654 C   0  0  0
  -32.2704    9.1508   66.8077 H   0  0  0
  -31.2954    8.3957   65.0973 C   0  0  0
  -30.3459    8.3032   65.6149 H   0  0  0
  -31.3932    8.0445   63.7715 C   0  0  0
  -30.5168    7.6890   63.2396 H   0  0  0
  -32.6095    8.1199   63.1322 C   0  0  0
  -32.6953    7.8074   62.0977 H   0  0  0
  -33.7124    8.6093   63.7958 C   0  0  0
  -34.6560    8.6766   63.2660 H   0  0  0
  2  1  2
  2  3  1
  2 23  1
  3  4  1
  3  5  2
  5  6  1
  5 10  1
  6  7  1
  6  8  1
  6  9  1
 10 11  1
 10 22  1
 11 12  1
 11 20  2
 12 13  1
 12 14  2
 14 15  1
 14 16  1
 16 17  1
 16 18  2
 18 19  1
 18 20  1
 20 21  1
 22 23  2
 23 24  1
 24 25  2
 24 26  1
 26 27  1
 26 31  1
 27 28  1
 27 29  1
 27 30  1
 31 32  1
 31 33  1
 31 34  1
 34 35  1
 34 39  2
 35 36  1
 35 37  2
 37 38  1
 38 39  1
 38 41  1
 39 40  1
 41 42  1
 41 43  1
 41 44  1
 44 45  2
 44 53  1
 45 46  1
 45 47  1
 47 48  1
 47 49  2
 49 50  1
 49 51  1
 51 52  1
 51 53  2
 53 54  1
M  ZZC   1 o1
M  ZZC   2 c4
M  ZZC   3 c3
M  ZZC   4 h19
M  ZZC   5 c2
M  ZZC   6 c1
M  ZZC   7 h20
M  ZZC   8 h21
M  ZZC   9 h22
M  ZZC  10 n2
M  ZZC  11 c6
M  ZZC  12 c11
M  ZZC  13 f1
M  ZZC  14 c10
M  ZZC  15 h15
M  ZZC  16 c9
M  ZZC  17 h16
M  ZZC  18 c8
M  ZZC  19 h17
M  ZZC  20 c7
M  ZZC  21 h18
M  ZZC  22 n1
M  ZZC  23 c5
M  ZZC  24 c12
M  ZZC  25 o2
M  ZZC  26 n3
M  ZZC  27 c13
M  ZZC  28 h12
M  ZZC  29 h13
M  ZZC  30 h14
M  ZZC  31 c14
M  ZZC  32 h10
M  ZZC  33 h11
M  ZZC  34 c15
M  ZZC  35 c16
M  ZZC  36 h9
M  ZZC  37 n4
M  ZZC  38 n5
M  ZZC  39 c17
M  ZZC  40 h8
M  ZZC  41 c18
M  ZZC  42 h6
M  ZZC  43 h7
M  ZZC  44 c19
M  ZZC  45 c20
M  ZZC  46 h5
M  ZZC  47 c21
M  ZZC  48 h4
M  ZZC  49 c22
M  ZZC  50 h3
M  ZZC  51 c23
M  ZZC  52 h2
M  ZZC  53 c24
M  ZZC  54 h1
M  ZZM   1 7
M  ZZI   1 80
M  ZZM   2 3
M  ZZI   2 122
M  ZZM   3 2
M  ZZI   3 120
M  ZZM   4 5
M  ZZI   4 1
M  ZZM   5 2
M  ZZI   5 120
M  ZZM   6 1
M  ZZI   6 111
M  ZZM   7 5
M  ZZI   7 1
M  ZZM   8 5
M  ZZI   8 1
M  ZZM   9 5
M  ZZI   9 1
M  ZZM  10 40
M  ZZI  10 193
M  ZZM  11 37
M  ZZI  11 124
M  ZZM  12 37
M  ZZI  12 124
M  ZZM  13 11
M  ZZI  13 90
M  ZZM  14 37
M  ZZI  14 125
M  ZZM  15 5
M  ZZI  15 1
M  ZZM  16 37
M  ZZI  16 125
M  ZZM  17 5
M  ZZI  17 1
M  ZZM  18 37
M  ZZI  18 125
M  ZZM  19 5
M  ZZI  19 1
M  ZZM  20 37
M  ZZI  20 125
M  ZZM  21 5
M  ZZI  21 1
M  ZZM  22 9
M  ZZI  22 220
M  ZZM  23 3
M  ZZI  23 121
M  ZZM  24 3
M  ZZI  24 121
M  ZZM  25 7
M  ZZI  25 81
M  ZZM  26 10
M  ZZI  26 192
M  ZZM  27 1
M  ZZI  27 111
M  ZZM  28 5
M  ZZI  28 1
M  ZZM  29 5
M  ZZI  29 1
M  ZZM  30 5
M  ZZI  30 1
M  ZZM  31 1
M  ZZI  31 112
M  ZZM  32 5
M  ZZI  32 1
M  ZZM  33 5
M  ZZI  33 1
M  ZZM  34 64
M  ZZI  34 105
M  ZZM  35 64
M  ZZI  35 105
M  ZZM  36 5
M  ZZI  36 1
M  ZZM  37 65
M  ZZI  37 207
M  ZZM  38 39
M  ZZI  38 215
M  ZZM  39 63
M  ZZI  39 104
M  ZZM  40 5
M  ZZI  40 1
M  ZZM  41 1
M  ZZI  41 112
M  ZZM  42 5
M  ZZI  42 1
M  ZZM  43 5
M  ZZI  43 1
M  ZZM  44 37
M  ZZI  44 124
M  ZZM  45 37
M  ZZI  45 125
M  ZZM  46 5
M  ZZI  46 1
M  ZZM  47 37
M  ZZI  47 125
M  ZZM  48 5
M  ZZI  48 1
M  ZZM  49 37
M  ZZI  49 125
M  ZZM  50 5
M  ZZI  50 1
M  ZZM  51 37
M  ZZI  51 125
M  ZZM  52 5
M  ZZI  52 1
M  ZZM  53 37
M  ZZI  53 125
M  ZZM  54 5
M  ZZI  54 1
M  END
> <NAME>
Z131774724

> <Score>
-25.126369

> <Natom>
54

> <Nflex>
6

> <Hbond>
-2.501724

> <Hphob>
-7.813057

> <VwInt>
-32.504786

> <Eintl>
9.32674

> <Dsolv>
11.758043

> <SolEl>
9.884842

> <mfScore>
-97.214388

> <RecConf>
1

> <molLogP>
2.294367

$$$$
Z1466144281
  MOLSOFT 11211612053D

 55 58  0  0  1  0  0  0  0  0999 V2000
  -34.6723    2.9227   70.8962 Cl  0  0  0
  -34.9319    3.4056   69.2592 C   0  0  0
  -34.4586    2.6136   68.2339 C   0  0  0
  -33.9217    1.6932   68.4417 H   0  0  0
  -34.6839    2.9973   66.9298 C   0  0  0
  -34.3277    2.3761   66.1145 H   0  0  0
  -35.3697    4.1631   66.6575 C   0  0  0
  -35.5454    4.4251   65.6195 H   0  0  0
  -35.8308    4.9805   67.6832 C   0  0  0
  -35.6132    4.5782   68.9934 C   0  0  0
  -35.9823    5.1805   69.8183 H   0  0  0
  -36.5956    6.2508   67.3992 C   0  0  0
  -37.6311    6.0221   67.1332 H   0  0  0
  -36.6383    6.8676   68.3021 H   0  0  0
  -35.9855    7.0645   66.2792 C   0  0  0
  -36.2700    6.8325   65.1136 O   0  0  0
  -35.1234    8.0429   66.7430 N   0  0  0
  -35.1728    8.2915   67.7231 H   0  0  0
  -34.2485    8.7445   65.9170 C   0  0  0
  -33.7411    8.5195   64.6452 C   0  0  0
  -33.9426    7.3971   63.7019 C   0  0  0
  -33.1504    7.3812   62.9478 H   0  0  0
  -34.8920    7.4972   63.1700 H   0  0  0
  -33.9092    6.4343   64.2181 H   0  0  0
  -32.8796    9.6142   64.4140 C   0  0  0
  -32.2661    9.8032   63.5441 H   0  0  0
  -32.8482   10.4854   65.4238 N   0  0  0
  -33.6364    9.9051   66.3474 N   0  0  0
  -33.7495   10.5375   67.6589 C   0  0  2
  -34.7594   10.3432   68.0387 H   0  0  0
  -33.5142   12.0334   67.6427 C   0  0  0
  -34.3857   12.5877   67.2940 H   0  0  0
  -32.6644   12.3201   67.0155 H   0  0  0
  -33.1894   12.3254   69.0778 C   0  0  0
  -34.0789   12.2805   69.7091 H   0  0  0
  -32.6647   13.2758   69.2048 H   0  0  0
  -32.2808   11.1931   69.4490 N   0  3  2
  -31.3492   11.4648   69.1052 H   0  0  0
  -32.7030   10.0029   68.6298 C   0  0  0
  -33.1205    9.2380   69.2933 H   0  0  0
  -31.8053    9.6067   68.1414 H   0  0  0
  -32.1380   10.9404   70.9286 C   0  0  0
  -31.3070   10.2378   71.0575 H   0  0  0
  -33.0551   10.4470   71.2699 H   0  0  0
  -31.8964   12.1996   71.7127 C   0  0  0
  -30.6521   12.8114   71.7375 C   0  0  0
  -29.7951   12.3536   71.2516 H   0  0  0
  -30.5054   14.0431   72.3439 C   0  0  0
  -29.5533   14.5488   72.3292 H   0  0  0
  -31.5773   14.6810   72.9234 C   0  0  0
  -31.4584   15.6761   73.3370 H   0  0  0
  -32.8065   14.0670   72.9280 C   0  0  0
  -33.6708   14.5723   73.3438 H   0  0  0
  -32.9569   12.8303   72.3432 C   0  0  0
  -33.9414   12.3815   72.3356 H   0  0  0
  2  1  1
  2  3  1
  2 10  2
  3  4  1
  3  5  2
  5  6  1
  5  7  1
  7  8  1
  7  9  2
  9 10  1
  9 12  1
 10 11  1
 12 13  1
 12 14  1
 12 15  1
 15 16  2
 15 17  1
 17 18  1
 17 19  1
 19 20  2
 19 28  1
 20 21  1
 20 25  1
 21 22  1
 21 23  1
 21 24  1
 25 26  1
 25 27  2
 27 28  1
 29 28  1
 29 30  1
 29 31  1
 29 39  1
 31 32  1
 31 33  1
 31 34  1
 34 35  1
 34 36  1
 37 34  1
 37 38  1
 37 39  1
 37 42  1
 39 40  1
 39 41  1
 42 43  1
 42 44  1
 42 45  1
 45 46  2
 45 54  1
 46 47  1
 46 48  1
 48 49  1
 48 50  2
 50 51  1
 50 52  1
 52 53  1
 52 54  2
 54 55  1
M  ZZC   1 &Cl1
M  ZZC   2 c11
M  ZZC   3 c10
M  ZZC   4 h16
M  ZZC   5 c9
M  ZZC   6 h17
M  ZZC   7 c8
M  ZZC   8 h18
M  ZZC   9 c7
M  ZZC  10 c12
M  ZZC  11 h15
M  ZZC  12 c6
M  ZZC  13 h19
M  ZZC  14 h20
M  ZZC  15 c5
M  ZZC  16 o1
M  ZZC  17 n3
M  ZZC  18 h21
M  ZZC  19 c4
M  ZZC  20 c2
M  ZZC  21 c1
M  ZZC  22 h23
M  ZZC  23 h24
M  ZZC  24 h25
M  ZZC  25 c3
M  ZZC  26 h22
M  ZZC  27 n1
M  ZZC  28 n2
M  ZZC  29 c13
M  ZZC  30 h26
M  ZZC  31 c14
M  ZZC  32 h13
M  ZZC  33 h14
M  ZZC  34 c15
M  ZZC  35 h11
M  ZZC  36 h12
M  ZZC  37 n4
M  ZZC  38 h1
M  ZZC  39 c16
M  ZZC  40 h10
M  ZZC  41 h9
M  ZZC  42 c17
M  ZZC  43 h7
M  ZZC  44 h8
M  ZZC  45 c18
M  ZZC  46 c19
M  ZZC  47 h6
M  ZZC  48 c20
M  ZZC  49 h5
M  ZZC  50 c21
M  ZZC  51 h4
M  ZZC  52 c22
M  ZZC  53 h3
M  ZZC  54 c23
M  ZZC  55 h2
M  ZZM   1 12
M  ZZI   1 92
M  ZZM   2 37
M  ZZI   2 124
M  ZZM   3 37
M  ZZI   3 125
M  ZZM   4 5
M  ZZI   4 1
M  ZZM   5 37
M  ZZI   5 125
M  ZZM   6 5
M  ZZI   6 1
M  ZZM   7 37
M  ZZI   7 125
M  ZZM   8 5
M  ZZI   8 1
M  ZZM   9 37
M  ZZI   9 124
M  ZZM  10 37
M  ZZI  10 125
M  ZZM  11 5
M  ZZI  11 1
M  ZZM  12 1
M  ZZI  12 112
M  ZZM  13 5
M  ZZI  13 1
M  ZZM  14 5
M  ZZI  14 1
M  ZZM  15 3
M  ZZI  15 121
M  ZZM  16 7
M  ZZI  16 81
M  ZZM  17 10
M  ZZI  17 191
M  ZZM  18 28
M  ZZI  18 11
M  ZZM  19 63
M  ZZI  19 104
M  ZZM  20 64
M  ZZI  20 105
M  ZZM  21 1
M  ZZI  21 111
M  ZZM  22 5
M  ZZI  22 1
M  ZZM  23 5
M  ZZI  23 1
M  ZZM  24 5
M  ZZI  24 1
M  ZZM  25 64
M  ZZI  25 105
M  ZZM  26 5
M  ZZI  26 1
M  ZZM  27 65
M  ZZI  27 207
M  ZZM  28 39
M  ZZI  28 215
M  ZZM  29 1
M  ZZI  29 113
M  ZZM  30 5
M  ZZI  30 1
M  ZZM  31 1
M  ZZI  31 112
M  ZZM  32 5
M  ZZI  32 1
M  ZZM  33 5
M  ZZI  33 1
M  ZZM  34 1
M  ZZI  34 112
M  ZZM  35 5
M  ZZI  35 1
M  ZZM  36 5
M  ZZI  36 1
M  ZZM  37 34
M  ZZI  37 231
M  ZZM  38 36
M  ZZI  38 17
M  ZZM  39 1
M  ZZI  39 112
M  ZZM  40 5
M  ZZI  40 1
M  ZZM  41 5
M  ZZI  41 1
M  ZZM  42 1
M  ZZI  42 112
M  ZZM  43 5
M  ZZI  43 1
M  ZZM  44 5
M  ZZI  44 1
M  ZZM  45 37
M  ZZI  45 124
M  ZZM  46 37
M  ZZI  46 125
M  ZZM  47 5
M  ZZI  47 1
M  ZZM  48 37
M  ZZI  48 125
M  ZZM  49 5
M  ZZI  49 1
M  ZZM  50 37
M  ZZI  50 125
M  ZZM  51 5
M  ZZI  51 1
M  ZZM  52 37
M  ZZI  52 125
M  ZZM  53 5
M  ZZI  53 1
M  ZZM  54 37
M  ZZI  54 125
M  ZZM  55 5
M  ZZI  55 1
M  CHG  1  37   1
M  END
> <NAME>
Z1466144281

> <Score>
-32.006485

> <Natom>
55

> <Nflex>
5

> <Hbond>
-3.981232

> <Hphob>
-7.51509

> <VwInt>
-31.750468

> <Eintl>
9.73131

> <Dsolv>
10.101601

> <SolEl>
6.477893

> <mfScore>
-98.612089

> <RecConf>
1

> <molLogP>
3.552831

$$$$
Z109825940
  MOLSOFT 11211612053D

 55 59  0  0  1  0  0  0  0  0999 V2000
  -34.9109    6.7628   71.7617 H   0  0  0
  -35.9921    6.6867   71.8259 C   0  0  0
  -36.6914    5.8255   71.0021 C   0  0  0
  -38.0654    5.7329   71.1201 C   0  0  0
  -38.6160    5.0467   70.4929 H   0  0  0
  -38.7465    6.5233   72.0177 C   0  0  0
  -39.8264    6.4651   72.0925 H   0  0  0
  -38.0529    7.4249   72.7870 C   0  0  0
  -38.6002    8.1107   73.4178 H   0  0  0
  -36.6763    7.4862   72.7133 C   0  0  0
  -36.1277    8.1998   73.3171 H   0  0  0
  -35.9831    4.9834   70.0641 C   0  0  0
  -35.1946    3.8994   70.3633 C   0  0  0
  -34.9817    3.5352   71.3593 H   0  0  0
  -34.7725    3.3131   69.1581 C   0  0  0
  -35.2791    4.0793   68.1175 C   0  0  0
  -35.0410    3.7449   66.7959 C   0  0  0
  -35.4384    4.3084   65.9611 H   0  0  0
  -34.2595    2.6404   66.5578 C   0  0  0
  -34.0322    2.3812   65.5338 H   0  0  0
  -33.7606    1.8700   67.5828 C   0  0  0
  -33.1513    1.0034   67.3639 H   0  0  0
  -34.0129    2.1872   68.8924 C   0  0  0
  -33.6175    1.5708   69.6926 H   0  0  0
  -35.9932    5.1188   68.6876 N   0  0  0
  -36.7110    6.1815   67.9620 C   0  0  0
  -37.6621    5.7599   67.6302 H   0  0  0
  -36.9598    6.9771   68.6580 H   0  0  0
  -35.9824    6.7594   66.7567 C   0  0  0
  -36.4191    6.5073   65.6410 O   0  0  0
  -34.8496    7.5480   67.0048 N   0  0  0
  -34.5000    8.0560   68.3227 C   0  0  0
  -35.4037    8.1884   68.9206 H   0  0  0
  -33.8777    7.2992   68.8148 H   0  0  0
  -33.7667    9.3800   68.1964 C   0  0  1
  -34.3587   10.1105   67.6281 H   0  0  0
  -33.5071    9.9836   69.5636 C   0  0  0
  -34.0309    9.5534   70.5810 O   0  0  0
  -32.6905   11.0972   69.5387 N   0  0  0
  -32.2028   11.3574   68.6853 H   0  0  0
  -32.4227   11.8513   70.7397 C   0  0  0
  -31.7700   12.6922   70.4922 H   0  0  0
  -31.9344   11.2018   71.4718 H   0  0  0
  -33.3665   12.2207   71.1516 H   0  0  0
  -32.5123    9.1752   67.5369 O   0  0  0
  -32.7428    8.5788   66.2991 C   0  0  0
  -33.8943    7.8500   65.9875 C   0  0  0
  -34.0238    7.3824   64.6821 C   0  0  0
  -34.8861    6.8135   64.3632 H   0  0  0
  -33.0403    7.6086   63.7408 C   0  0  0
  -33.1641    7.2353   62.7287 H   0  0  0
  -31.8881    8.2784   64.0842 C   0  0  0
  -31.1058    8.4301   63.3464 H   0  0  0
  -31.7393    8.7516   65.3691 C   0  0  0
  -30.8345    9.2755   65.6515 H   0  0  0
  2  1  1
  2  3  1
  2 10  2
  3  4  2
  3 12  1
  4  5  1
  4  6  1
  6  7  1
  6  8  2
  8  9  1
  8 10  1
 10 11  1
 12 13  2
 12 25  1
 13 14  1
 13 15  1
 15 16  2
 15 23  1
 16 17  1
 16 25  1
 17 18  1
 17 19  2
 19 20  1
 19 21  1
 21 22  1
 21 23  2
 23 24  1
 25 26  1
 26 27  1
 26 28  1
 26 29  1
 29 30  2
 29 31  1
 31 32  1
 31 47  1
 32 33  1
 32 34  1
 35 32  1
 35 36  1
 35 37  1
 35 45  1
 37 38  2
 37 39  1
 39 40  1
 39 41  1
 41 42  1
 41 43  1
 41 44  1
 45 46  1
 46 47  1
 46 54  2
 47 48  2
 48 49  1
 48 50  1
 50 51  1
 50 52  2
 52 53  1
 52 54  1
 54 55  1
M  ZZC   1 h1
M  ZZC   2 c26
M  ZZC   3 c21
M  ZZC   4 c22
M  ZZC   5 h5
M  ZZC   6 c23
M  ZZC   7 h4
M  ZZC   8 c24
M  ZZC   9 h3
M  ZZC  10 c25
M  ZZC  11 h2
M  ZZC  12 c20
M  ZZC  13 c19
M  ZZC  14 h6
M  ZZC  15 c18
M  ZZC  16 c13
M  ZZC  17 c14
M  ZZC  18 h10
M  ZZC  19 c15
M  ZZC  20 h9
M  ZZC  21 c16
M  ZZC  22 h8
M  ZZC  23 c17
M  ZZC  24 h7
M  ZZC  25 n3
M  ZZC  26 c12
M  ZZC  27 h11
M  ZZC  28 h12
M  ZZC  29 c11
M  ZZC  30 o3
M  ZZC  31 n2
M  ZZC  32 c4
M  ZZC  33 h17
M  ZZC  34 h18
M  ZZC  35 c3
M  ZZC  36 h23
M  ZZC  37 c2
M  ZZC  38 o1
M  ZZC  39 n1
M  ZZC  40 h19
M  ZZC  41 c1
M  ZZC  42 h20
M  ZZC  43 h21
M  ZZC  44 h22
M  ZZC  45 o2
M  ZZC  46 c10
M  ZZC  47 c5
M  ZZC  48 c6
M  ZZC  49 h16
M  ZZC  50 c7
M  ZZC  51 h15
M  ZZC  52 c8
M  ZZC  53 h14
M  ZZC  54 c9
M  ZZC  55 h13
M  ZZM   1 5
M  ZZI   1 1
M  ZZM   2 37
M  ZZI   2 125
M  ZZM   3 37
M  ZZI   3 124
M  ZZM   4 37
M  ZZI   4 125
M  ZZM   5 5
M  ZZI   5 1
M  ZZM   6 37
M  ZZI   6 125
M  ZZM   7 5
M  ZZI   7 1
M  ZZM   8 37
M  ZZI   8 125
M  ZZM   9 5
M  ZZI   9 1
M  ZZM  10 37
M  ZZI  10 125
M  ZZM  11 5
M  ZZI  11 1
M  ZZM  12 63
M  ZZI  12 104
M  ZZM  13 64
M  ZZI  13 105
M  ZZM  14 5
M  ZZI  14 1
M  ZZM  15 64
M  ZZI  15 105
M  ZZM  16 63
M  ZZI  16 104
M  ZZM  17 37
M  ZZI  17 125
M  ZZM  18 5
M  ZZI  18 1
M  ZZM  19 37
M  ZZI  19 125
M  ZZM  20 5
M  ZZI  20 1
M  ZZM  21 37
M  ZZI  21 125
M  ZZM  22 5
M  ZZI  22 1
M  ZZM  23 37
M  ZZI  23 125
M  ZZM  24 5
M  ZZI  24 1
M  ZZM  25 39
M  ZZI  25 215
M  ZZM  26 1
M  ZZI  26 112
M  ZZM  27 5
M  ZZI  27 1
M  ZZM  28 5
M  ZZI  28 1
M  ZZM  29 3
M  ZZI  29 121
M  ZZM  30 7
M  ZZI  30 81
M  ZZM  31 10
M  ZZI  31 192
M  ZZM  32 1
M  ZZI  32 112
M  ZZM  33 5
M  ZZI  33 1
M  ZZM  34 5
M  ZZI  34 1
M  ZZM  35 1
M  ZZI  35 113
M  ZZM  36 5
M  ZZI  36 1
M  ZZM  37 3
M  ZZI  37 121
M  ZZM  38 7
M  ZZI  38 81
M  ZZM  39 10
M  ZZI  39 211
M  ZZM  40 28
M  ZZI  40 11
M  ZZM  41 1
M  ZZI  41 111
M  ZZM  42 5
M  ZZI  42 1
M  ZZM  43 5
M  ZZI  43 1
M  ZZM  44 5
M  ZZI  44 1
M  ZZM  45 6
M  ZZI  45 59
M  ZZM  46 37
M  ZZI  46 124
M  ZZM  47 37
M  ZZI  47 124
M  ZZM  48 37
M  ZZI  48 125
M  ZZM  49 5
M  ZZI  49 1
M  ZZM  50 37
M  ZZI  50 125
M  ZZM  51 5
M  ZZI  51 1
M  ZZM  52 37
M  ZZI  52 125
M  ZZM  53 5
M  ZZI  53 1
M  ZZM  54 37
M  ZZI  54 125
M  ZZM  55 5
M  ZZI  55 1
M  END
> <NAME>
Z109825940

> <Score>
-27.216893

> <Natom>
55

> <Nflex>
5

> <Hbond>
-1.993457

> <Hphob>
-8.005682

> <VwInt>
-32.594559

> <Eintl>
9.382362

> <Dsolv>
12.675248

> <SolEl>
4.9674

> <mfScore>
-103.538843

> <RecConf>
1

> <molLogP>
3.510868

$$$$
Z1002386462
  MOLSOFT 11211612053D

 55 57  0  0  0  0  0  0  0  0999 V2000
  -31.1956   10.8300   68.5376 H   0  0  0
  -31.8803   10.2327   69.0255 N   0  3  0
  -31.4797   10.2136   70.4850 C   0  0  0
  -32.1478    9.5175   71.0052 H   0  0  0
  -30.4550    9.8316   70.5414 H   0  0  0
  -31.5668   11.6039   71.0967 C   0  0  0
  -31.3410   11.5484   72.1658 H   0  0  0
  -30.8101   12.2577   70.6507 H   0  0  0
  -32.9470   12.2004   70.8946 C   0  0  0
  -33.6938   11.5957   71.4201 H   0  0  0
  -32.9922   13.1995   71.3338 H   0  0  0
  -33.2780   12.2535   69.4144 C   0  0  0
  -34.2659   12.6946   69.2626 H   0  0  0
  -32.5647   12.9041   68.8982 H   0  0  0
  -33.2394   10.8626   68.8033 C   0  0  0
  -33.4084   10.9369   67.7247 H   0  0  0
  -33.9940   10.2070   69.2532 H   0  0  0
  -31.7566    8.8309   68.4542 C   0  0  0
  -32.2245    8.1475   69.1717 H   0  0  0
  -30.6868    8.5949   68.4423 H   0  0  0
  -32.3512    8.5821   67.0909 C   0  0  0
  -31.5901    8.6950   65.9330 C   0  0  0
  -30.5399    8.9624   65.9918 H   0  0  0
  -32.1396    8.4441   64.6873 C   0  0  0
  -31.5256    8.5299   63.7952 H   0  0  0
  -33.4649    8.0786   64.5701 C   0  0  0
  -33.8965    7.8844   63.5922 H   0  0  0
  -34.2225    7.9562   65.7219 C   0  0  0
  -33.6807    8.1995   66.9713 C   0  0  0
  -34.3055    8.0800   67.8525 H   0  0  0
  -35.6591    7.6162   65.6308 C   0  0  0
  -36.5432    8.6610   65.5821 N   0  0  0
  -37.5432    8.4782   65.6381 H   0  0  0
  -36.2423    9.6305   65.5537 H   0  0  0
  -36.0467    6.3815   65.6256 N   0  0  0
  -34.9237    5.5500   65.7914 O   0  0  0
  -35.3597    4.2475   66.1944 C   0  0  0
  -34.7455    3.5187   65.6582 H   0  0  0
  -36.3939    4.0886   65.8781 H   0  0  0
  -35.2232    4.0287   67.6566 C   0  0  0
  -34.6563    2.9257   68.2644 C   0  0  0
  -34.2150    2.0530   67.8048 H   0  0  0
  -34.7326    3.0800   69.9648 S   0  0  0
  -35.5100    4.6008   69.7769 C   0  0  0
  -35.7125    4.9779   68.5318 N   0  0  0
  -35.9097    5.3944   70.9747 C   0  0  0
  -35.5613    4.8851   71.8793 H   0  0  0
  -37.4292    5.5098   71.0589 C   0  0  0
  -37.7348    6.0913   71.9341 H   0  0  0
  -37.8919    4.5211   71.1361 H   0  0  0
  -37.8451    5.9955   70.1707 H   0  0  0
  -35.2641    6.7778   70.9432 C   0  0  0
  -35.5382    7.3588   71.8289 H   0  0  0
  -35.5686    7.3481   70.0598 H   0  0  0
  -34.1727    6.7009   70.9196 H   0  0  0
  2  1  1
  2  3  1
  2 18  1
  2 15  1
  3  4  1
  3  5  1
  3  6  1
  6  7  1
  6  8  1
  6  9  1
  9 10  1
  9 11  1
  9 12  1
 12 13  1
 12 14  1
 12 15  1
 15 16  1
 15 17  1
 18 19  1
 18 20  1
 18 21  1
 21 22  1
 21 29  2
 22 23  1
 22 24  2
 24 25  1
 24 26  1
 26 27  1
 26 28  2
 28 29  1
 28 31  1
 29 30  1
 31 32  1
 31 35  2
 32 33  1
 32 34  1
 35 36  1
 36 37  1
 37 38  1
 37 39  1
 37 40  1
 40 41  2
 40 45  1
 41 42  1
 41 43  1
 43 44  1
 44 45  2
 44 46  1
 46 47  1
 46 48  1
 46 52  1
 48 49  1
 48 50  1
 48 51  1
 52 53  1
 52 54  1
 52 55  1
M  ZZC   1 h1
M  ZZC   2 n3
M  ZZC   3 c16
M  ZZC   4 h12
M  ZZC   5 h13
M  ZZC   6 c17
M  ZZC   7 h10
M  ZZC   8 h11
M  ZZC   9 c18
M  ZZC  10 h8
M  ZZC  11 h9
M  ZZC  12 c19
M  ZZC  13 h6
M  ZZC  14 h7
M  ZZC  15 c20
M  ZZC  16 h4
M  ZZC  17 h5
M  ZZC  18 c15
M  ZZC  19 h14
M  ZZC  20 h15
M  ZZC  21 c13
M  ZZC  22 c12
M  ZZC  23 h17
M  ZZC  24 c11
M  ZZC  25 h18
M  ZZC  26 c10
M  ZZC  27 h19
M  ZZC  28 c9
M  ZZC  29 c14
M  ZZC  30 h16
M  ZZC  31 c8
M  ZZC  32 n4
M  ZZC  33 h2
M  ZZC  34 h3
M  ZZC  35 n2
M  ZZC  36 o1
M  ZZC  37 c7
M  ZZC  38 h20
M  ZZC  39 h21
M  ZZC  40 c5
M  ZZC  41 c6
M  ZZC  42 h22
M  ZZC  43 s1
M  ZZC  44 c4
M  ZZC  45 n1
M  ZZC  46 c2
M  ZZC  47 h26
M  ZZC  48 c3
M  ZZC  49 h23
M  ZZC  50 h24
M  ZZC  51 h25
M  ZZC  52 c1
M  ZZC  53 h27
M  ZZC  54 h28
M  ZZC  55 h29
M  ZZM   1 36
M  ZZI   1 17
M  ZZM   2 34
M  ZZI   2 231
M  ZZM   3 1
M  ZZI   3 112
M  ZZM   4 5
M  ZZI   4 1
M  ZZM   5 5
M  ZZI   5 1
M  ZZM   6 1
M  ZZI   6 112
M  ZZM   7 5
M  ZZI   7 1
M  ZZM   8 5
M  ZZI   8 1
M  ZZM   9 1
M  ZZI   9 112
M  ZZM  10 5
M  ZZI  10 1
M  ZZM  11 5
M  ZZI  11 1
M  ZZM  12 1
M  ZZI  12 112
M  ZZM  13 5
M  ZZI  13 1
M  ZZM  14 5
M  ZZI  14 1
M  ZZM  15 1
M  ZZI  15 112
M  ZZM  16 5
M  ZZI  16 1
M  ZZM  17 5
M  ZZI  17 1
M  ZZM  18 1
M  ZZI  18 112
M  ZZM  19 5
M  ZZI  19 1
M  ZZM  20 5
M  ZZI  20 1
M  ZZM  21 37
M  ZZI  21 124
M  ZZM  22 37
M  ZZI  22 125
M  ZZM  23 5
M  ZZI  23 1
M  ZZM  24 37
M  ZZI  24 125
M  ZZM  25 5
M  ZZI  25 1
M  ZZM  26 37
M  ZZI  26 125
M  ZZM  27 5
M  ZZI  27 1
M  ZZM  28 37
M  ZZI  28 124
M  ZZM  29 37
M  ZZI  29 125
M  ZZM  30 5
M  ZZI  30 1
M  ZZM  31 3
M  ZZI  31 121
M  ZZM  32 40
M  ZZI  32 224
M  ZZM  33 28
M  ZZI  33 11
M  ZZM  34 28
M  ZZI  34 11
M  ZZM  35 9
M  ZZI  35 220
M  ZZM  36 6
M  ZZI  36 65
M  ZZM  37 1
M  ZZI  37 112
M  ZZM  38 5
M  ZZI  38 1
M  ZZM  39 5
M  ZZI  39 1
M  ZZM  40 64
M  ZZI  40 105
M  ZZM  41 63
M  ZZI  41 104
M  ZZM  42 5
M  ZZI  42 1
M  ZZM  43 44
M  ZZI  43 248
M  ZZM  44 63
M  ZZI  44 104
M  ZZM  45 66
M  ZZI  45 222
M  ZZM  46 1
M  ZZI  46 113
M  ZZM  47 5
M  ZZI  47 1
M  ZZM  48 1
M  ZZI  48 111
M  ZZM  49 5
M  ZZI  49 1
M  ZZM  50 5
M  ZZI  50 1
M  ZZM  51 5
M  ZZI  51 1
M  ZZM  52 1
M  ZZI  52 111
M  ZZM  53 5
M  ZZI  53 1
M  ZZM  54 5
M  ZZI  54 1
M  ZZM  55 5
M  ZZI  55 1
M  CHG  1   2   1
M  END
> <NAME>
Z1002386462

> <Score>
-26.508774

> <Natom>
55

> <Nflex>
5

> <Hbond>
-4.383856

> <Hphob>
-7.511544

> <VwInt>
-32.064533

> <Eintl>
8.810978

> <Dsolv>
14.814282

> <SolEl>
11.468089

> <mfScore>
-93.288387

> <RecConf>
1

> <molLogP>
3.179946

$$$$
Z741127764
  MOLSOFT 11211612053D

 55 57  0  0  1  0  0  0  0  0999 V2000
  -33.4922   12.3766   68.0061 O   0  0  0
  -33.5425   10.9420   67.8352 S   0  0  0
  -34.7226   10.2953   67.3046 O   0  0  0
  -33.1142   10.1968   69.3161 N   0  0  0
  -34.2408    9.9607   70.2534 C   0  0  0
  -35.0886    9.5088   69.7291 H   0  0  0
  -34.5368   10.9279   70.6625 H   0  0  0
  -33.7912    9.0584   71.4004 C   0  0  1
  -34.6066    8.9952   72.1275 H   0  0  0
  -33.4783    7.6402   70.9363 C   0  0  0
  -34.3728    7.1546   70.5397 H   0  0  0
  -33.0936    7.0402   71.7659 H   0  0  0
  -32.7212    7.6234   70.1481 H   0  0  0
  -32.6771    9.6475   72.0985 O   0  0  0
  -31.5647    9.9446   71.2337 C   0  0  2
  -31.1321    9.0059   70.8716 H   0  0  0
  -30.5218   10.6683   72.0679 C   0  0  0
  -29.6839   10.9955   71.4491 H   0  0  0
  -30.1433   10.0166   72.8611 H   0  0  0
  -30.9510   11.5470   72.5598 H   0  0  0
  -31.9816   10.8244   70.0528 C   0  0  0
  -32.2866   11.8182   70.4020 H   0  0  0
  -31.1244   10.9339   69.3868 H   0  0  0
  -32.2022   10.4949   66.9067 N   0  0  0
  -31.3873   11.0550   67.1687 H   0  0  0
  -31.9123    9.0416   66.7663 C   0  0  0
  -30.8691    8.9406   66.4511 H   0  0  0
  -31.9544    8.5468   67.7409 H   0  0  0
  -32.7785    8.3242   65.7662 C   0  0  0
  -32.5131    8.3842   64.4069 C   0  0  0
  -31.6544    8.9245   64.0233 H   0  0  0
  -33.3622    7.7465   63.5282 C   0  0  0
  -33.1685    7.7769   62.4606 H   0  0  0
  -34.4570    7.0691   63.8849 N   0  0  0
  -34.6891    6.9923   65.2003 C   0  0  0
  -33.8912    7.5953   66.1631 C   0  0  0
  -34.1472    7.5353   67.2153 H   0  0  0
  -35.8540    6.3071   65.5468 O   0  0  0
  -35.7511    5.5302   66.6968 C   0  0  0
  -36.4278    5.9212   67.8373 C   0  0  0
  -37.0140    6.8345   67.8269 H   0  0  0
  -36.3598    5.1365   68.9791 C   0  0  0
  -37.0891    5.5412   70.2264 C   0  0  0
  -36.6609    6.4565   70.6421 H   0  0  0
  -37.0249    4.7625   70.9921 H   0  0  0
  -38.1493    5.7030   70.0122 H   0  0  0
  -35.6103    3.9691   68.9500 C   0  0  0
  -35.5466    3.3492   69.8397 H   0  0  0
  -34.9654    3.5539   67.7958 C   0  0  0
  -34.2172    2.2548   67.7807 C   0  0  0
  -33.7467    2.0841   66.8082 H   0  0  0
  -34.8995    1.4225   67.9765 H   0  0  0
  -33.4318    2.2553   68.5418 H   0  0  0
  -35.0461    4.3405   66.6595 C   0  0  0
  -34.5714    4.0202   65.7389 H   0  0  0
  2  1  2
  2  3  2
  2  4  1
  2 24  1
  4  5  1
  4 21  1
  5  6  1
  5  7  1
  8  5  1
  8  9  1
  8 10  1
  8 14  1
 10 11  1
 10 12  1
 10 13  1
 15 14  1
 15 16  1
 15 17  1
 15 21  1
 17 18  1
 17 19  1
 17 20  1
 21 22  1
 21 23  1
 24 25  1
 24 26  1
 26 27  1
 26 28  1
 26 29  1
 29 30  1
 29 36  2
 30 31  1
 30 32  2
 32 33  1
 32 34  1
 34 35  2
 35 36  1
 35 38  1
 36 37  1
 38 39  1
 39 40  2
 39 54  1
 40 41  1
 40 42  1
 42 43  1
 42 47  2
 43 44  1
 43 45  1
 43 46  1
 47 48  1
 47 49  1
 49 50  1
 49 54  2
 50 51  1
 50 52  1
 50 53  1
 54 55  1
M  ZZC   1 o2
M  ZZC   2 s1
M  ZZC   3 o3
M  ZZC   4 n3
M  ZZC   5 c14
M  ZZC   6 h12
M  ZZC   7 h13
M  ZZC   8 c15
M  ZZC   9 h27
M  ZZC  10 c19
M  ZZC  11 h4
M  ZZC  12 h5
M  ZZC  13 h6
M  ZZC  14 o4
M  ZZC  15 c16
M  ZZC  16 h26
M  ZZC  17 c18
M  ZZC  18 h7
M  ZZC  19 h8
M  ZZC  20 h9
M  ZZC  21 c17
M  ZZC  22 h10
M  ZZC  23 h11
M  ZZC  24 n2
M  ZZC  25 h14
M  ZZC  26 c13
M  ZZC  27 h15
M  ZZC  28 h16
M  ZZC  29 c10
M  ZZC  30 c11
M  ZZC  31 h18
M  ZZC  32 c12
M  ZZC  33 h17
M  ZZC  34 n1
M  ZZC  35 c8
M  ZZC  36 c9
M  ZZC  37 h19
M  ZZC  38 o1
M  ZZC  39 c6
M  ZZC  40 c5
M  ZZC  41 h21
M  ZZC  42 c4
M  ZZC  43 c20
M  ZZC  44 h1
M  ZZC  45 h2
M  ZZC  46 h3
M  ZZC  47 c3
M  ZZC  48 h22
M  ZZC  49 c2
M  ZZC  50 c1
M  ZZC  51 h23
M  ZZC  52 h24
M  ZZC  53 h25
M  ZZC  54 c7
M  ZZC  55 h20
M  ZZM   1 32
M  ZZI   1 73
M  ZZM   2 18
M  ZZI   2 250
M  ZZM   3 32
M  ZZI   3 73
M  ZZM   4 43
M  ZZI   4 195
M  ZZM   5 1
M  ZZI   5 112
M  ZZM   6 5
M  ZZI   6 1
M  ZZM   7 5
M  ZZI   7 1
M  ZZM   8 1
M  ZZI   8 113
M  ZZM   9 5
M  ZZI   9 1
M  ZZM  10 1
M  ZZI  10 111
M  ZZM  11 5
M  ZZI  11 1
M  ZZM  12 5
M  ZZI  12 1
M  ZZM  13 5
M  ZZI  13 1
M  ZZM  14 6
M  ZZI  14 65
M  ZZM  15 1
M  ZZI  15 113
M  ZZM  16 5
M  ZZI  16 1
M  ZZM  17 1
M  ZZI  17 111
M  ZZM  18 5
M  ZZI  18 1
M  ZZM  19 5
M  ZZI  19 1
M  ZZM  20 5
M  ZZI  20 1
M  ZZM  21 1
M  ZZI  21 112
M  ZZM  22 5
M  ZZI  22 1
M  ZZM  23 5
M  ZZI  23 1
M  ZZM  24 43
M  ZZI  24 196
M  ZZM  25 28
M  ZZI  25 11
M  ZZM  26 1
M  ZZI  26 112
M  ZZM  27 5
M  ZZI  27 1
M  ZZM  28 5
M  ZZI  28 1
M  ZZM  29 37
M  ZZI  29 124
M  ZZM  30 37
M  ZZI  30 125
M  ZZM  31 5
M  ZZI  31 1
M  ZZM  32 37
M  ZZI  32 125
M  ZZM  33 5
M  ZZI  33 1
M  ZZM  34 38
M  ZZI  34 223
M  ZZM  35 37
M  ZZI  35 124
M  ZZM  36 37
M  ZZI  36 125
M  ZZM  37 5
M  ZZI  37 1
M  ZZM  38 6
M  ZZI  38 59
M  ZZM  39 37
M  ZZI  39 124
M  ZZM  40 37
M  ZZI  40 125
M  ZZM  41 5
M  ZZI  41 1
M  ZZM  42 37
M  ZZI  42 124
M  ZZM  43 1
M  ZZI  43 111
M  ZZM  44 5
M  ZZI  44 1
M  ZZM  45 5
M  ZZI  45 1
M  ZZM  46 5
M  ZZI  46 1
M  ZZM  47 37
M  ZZI  47 125
M  ZZM  48 5
M  ZZI  48 1
M  ZZM  49 37
M  ZZI  49 124
M  ZZM  50 1
M  ZZI  50 111
M  ZZM  51 5
M  ZZI  51 1
M  ZZM  52 5
M  ZZI  52 1
M  ZZM  53 5
M  ZZI  53 1
M  ZZM  54 37
M  ZZI  54 125
M  ZZM  55 5
M  ZZI  55 1
M  END
> <NAME>
Z741127764

> <Score>
-25.472672

> <Natom>
55

> <Nflex>
4

> <Hbond>
-2.352364

> <Hphob>
-7.247597

> <VwInt>
-29.623971

> <Eintl>
7.93019

> <Dsolv>
11.745795

> <SolEl>
5.680793

> <mfScore>
-97.445763

> <RecConf>
1

> <molLogP>
3.489935

$$$$
Z27647232
  MOLSOFT 11211612053D

 56 60  0  0  0  0  0  0  0  0999 V2000
  -31.9292    8.4584   62.1929 H   0  0  0
  -31.5371    8.4707   63.2041 C   0  0  0
  -30.2245    8.1527   63.4560 C   0  0  0
  -29.5948    7.8905   62.6200 H   0  0  0
  -29.7217    8.1521   64.7364 C   0  0  0
  -28.6803    7.8952   64.9053 H   0  0  0
  -30.5317    8.4696   65.8116 C   0  0  0
  -30.1356    8.4611   66.8211 H   0  0  0
  -31.8625    8.7853   65.5852 C   0  0  0
  -32.3313    8.7806   64.2832 C   0  0  0
  -33.9799    9.2026   64.2798 S   0  0  0
  -33.9847    9.2957   65.9950 C   0  0  0
  -32.8007    9.1049   66.5407 N   0  0  0
  -35.2249    9.5121   66.6473 C   0  0  0
  -35.2723   10.0863   67.8659 C   0  0  0
  -36.2329   10.2288   68.3358 H   0  0  0
  -34.1772   10.4233   68.7709 C   0  0  0
  -33.4709   11.6083   68.6848 C   0  0  0
  -33.6809   12.3177   67.8899 H   0  0  0
  -32.5016   11.8994   69.6267 C   0  0  0
  -31.9724   12.8367   69.5282 H   0  0  0
  -32.2326   11.0074   70.6626 C   0  0  0
  -31.2705   11.2122   71.6617 O   0  0  0
  -30.4934   12.4022   71.5157 C   0  0  0
  -29.8301   12.5354   72.3738 H   0  0  0
  -31.1808   13.2517   71.5007 H   0  0  0
  -29.9424   12.4052   70.5707 H   0  0  0
  -32.9483    9.8233   70.7488 C   0  0  0
  -33.9163    9.5353   69.7990 C   0  0  0
  -34.4911    8.6184   69.8403 H   0  0  0
  -32.6369    8.9723   71.8174 O   0  0  0
  -33.4973    7.8337   71.9274 C   0  0  0
  -33.2051    7.2796   72.8232 H   0  0  0
  -33.3714    7.1630   71.0715 H   0  0  0
  -34.5428    8.1363   72.0512 H   0  0  0
  -36.5307    8.9968   66.0951 C   0  0  0
  -36.7002    9.3085   65.0616 H   0  0  0
  -37.3974    9.3402   66.6643 H   0  0  0
  -36.4409    7.4827   66.1837 C   0  0  0
  -36.4298    6.7903   65.1772 O   0  0  0
  -36.3337    7.0419   67.4931 N   0  0  0
  -36.5107    7.7124   68.2276 H   0  0  0
  -35.9283    5.7628   67.9317 C   0  0  0
  -35.9175    5.5539   69.3113 C   0  0  0
  -36.2608    6.3320   69.9852 H   0  0  0
  -35.4592    4.3690   69.8577 C   0  0  0
  -35.4382    4.2019   70.9297 H   0  0  0
  -35.0164    3.4145   68.9784 C   0  0  0
  -35.0377    3.6003   67.6418 C   0  0  0
  -35.4926    4.7641   67.0648 C   0  0  0
  -35.4690    4.8790   65.9875 H   0  0  0
  -34.5426    2.5209   66.9577 O   0  0  0
  -34.2547    1.6241   68.0476 C   0  0  0
  -34.8774    0.7299   67.9497 H   0  0  0
  -33.2043    1.3204   67.9890 H   0  0  0
  -34.5015    2.1988   69.3410 O   0  0  0
  2  1  1
  2  3  2
  2 10  1
  3  4  1
  3  5  1
  5  6  1
  5  7  2
  7  8  1
  7  9  1
  9 10  2
  9 13  1
 10 11  1
 11 12  1
 12 13  2
 12 14  1
 14 15  2
 14 36  1
 15 16  1
 15 17  1
 17 18  2
 17 29  1
 18 19  1
 18 20  1
 20 21  1
 20 22  2
 22 23  1
 22 28  1
 23 24  1
 24 25  1
 24 26  1
 24 27  1
 28 29  2
 28 31  1
 29 30  1
 31 32  1
 32 33  1
 32 34  1
 32 35  1
 36 37  1
 36 38  1
 36 39  1
 39 40  2
 39 41  1
 41 42  1
 41 43  1
 43 44  2
 43 50  1
 44 45  1
 44 46  1
 46 47  1
 46 48  2
 48 49  1
 48 56  1
 49 50  2
 49 52  1
 50 51  1
 52 53  1
 53 54  1
 53 55  1
 53 56  1
M  ZZC   1 h1
M  ZZC   2 c25
M  ZZC   3 c24
M  ZZC   4 h2
M  ZZC   5 c23
M  ZZC   6 h3
M  ZZC   7 c22
M  ZZC   8 h4
M  ZZC   9 c21
M  ZZC  10 c26
M  ZZC  11 s1
M  ZZC  12 c20
M  ZZC  13 n2
M  ZZC  14 c10
M  ZZC  15 c9
M  ZZC  16 h13
M  ZZC  17 c5
M  ZZC  18 c4
M  ZZC  19 h18
M  ZZC  20 c3
M  ZZC  21 h19
M  ZZC  22 c2
M  ZZC  23 o1
M  ZZC  24 c1
M  ZZC  25 h20
M  ZZC  26 h21
M  ZZC  27 h22
M  ZZC  28 c7
M  ZZC  29 c6
M  ZZC  30 h17
M  ZZC  31 o2
M  ZZC  32 c8
M  ZZC  33 h14
M  ZZC  34 h15
M  ZZC  35 h16
M  ZZC  36 c11
M  ZZC  37 h11
M  ZZC  38 h12
M  ZZC  39 c12
M  ZZC  40 o3
M  ZZC  41 n1
M  ZZC  42 h10
M  ZZC  43 c13
M  ZZC  44 c14
M  ZZC  45 h9
M  ZZC  46 c15
M  ZZC  47 h8
M  ZZC  48 c16
M  ZZC  49 c17
M  ZZC  50 c18
M  ZZC  51 h7
M  ZZC  52 o4
M  ZZC  53 c19
M  ZZC  54 h5
M  ZZC  55 h6
M  ZZC  56 o5
M  ZZM   1 5
M  ZZI   1 1
M  ZZM   2 37
M  ZZI   2 125
M  ZZM   3 37
M  ZZI   3 125
M  ZZM   4 5
M  ZZI   4 1
M  ZZM   5 37
M  ZZI   5 125
M  ZZM   6 5
M  ZZI   6 1
M  ZZM   7 37
M  ZZI   7 125
M  ZZM   8 5
M  ZZI   8 1
M  ZZM   9 64
M  ZZI   9 105
M  ZZM  10 63
M  ZZI  10 104
M  ZZM  11 44
M  ZZI  11 248
M  ZZM  12 63
M  ZZI  12 104
M  ZZM  13 66
M  ZZI  13 222
M  ZZM  14 2
M  ZZI  14 120
M  ZZM  15 2
M  ZZI  15 120
M  ZZM  16 5
M  ZZI  16 1
M  ZZM  17 37
M  ZZI  17 124
M  ZZM  18 37
M  ZZI  18 125
M  ZZM  19 5
M  ZZI  19 1
M  ZZM  20 37
M  ZZI  20 125
M  ZZM  21 5
M  ZZI  21 1
M  ZZM  22 37
M  ZZI  22 124
M  ZZM  23 6
M  ZZI  23 59
M  ZZM  24 1
M  ZZI  24 111
M  ZZM  25 5
M  ZZI  25 1
M  ZZM  26 5
M  ZZI  26 1
M  ZZM  27 5
M  ZZI  27 1
M  ZZM  28 37
M  ZZI  28 124
M  ZZM  29 37
M  ZZI  29 125
M  ZZM  30 5
M  ZZI  30 1
M  ZZM  31 6
M  ZZI  31 59
M  ZZM  32 1
M  ZZI  32 111
M  ZZM  33 5
M  ZZI  33 1
M  ZZM  34 5
M  ZZI  34 1
M  ZZM  35 5
M  ZZI  35 1
M  ZZM  36 1
M  ZZI  36 112
M  ZZM  37 5
M  ZZI  37 1
M  ZZM  38 5
M  ZZI  38 1
M  ZZM  39 3
M  ZZI  39 121
M  ZZM  40 7
M  ZZI  40 81
M  ZZM  41 10
M  ZZI  41 191
M  ZZM  42 28
M  ZZI  42 11
M  ZZM  43 37
M  ZZI  43 124
M  ZZM  44 37
M  ZZI  44 125
M  ZZM  45 5
M  ZZI  45 1
M  ZZM  46 37
M  ZZI  46 125
M  ZZM  47 5
M  ZZI  47 1
M  ZZM  48 37
M  ZZI  48 124
M  ZZM  49 37
M  ZZI  49 124
M  ZZM  50 37
M  ZZI  50 125
M  ZZM  51 5
M  ZZI  51 1
M  ZZM  52 6
M  ZZI  52 59
M  ZZM  53 1
M  ZZI  53 112
M  ZZM  54 5
M  ZZI  54 1
M  ZZM  55 5
M  ZZI  55 1
M  ZZM  56 6
M  ZZI  56 59
M  END
> <NAME>
Z27647232

> <Score>
-26.638516

> <Natom>
56

> <Nflex>
2

> <Hbond>
-1.466189

> <Hphob>
-9.222327

> <VwInt>
-34.113498

> <Eintl>
9.862416

> <Dsolv>
13.529261

> <SolEl>
9.115841

> <mfScore>
-99.970157

> <RecConf>
1

> <molLogP>
6.031399

$$$$
Z116903828
  MOLSOFT 11211612053D

 57 60  0  0  1  0  0  0  0  0999 V2000
  -33.1799   10.4362   72.5132 O   0  0  0
  -32.6897   11.3053   71.8046 C   0  0  0
  -31.7284   12.3134   72.3754 C   0  0  0
  -32.2523   13.2522   72.5790 H   0  0  0
  -30.8938   12.4875   71.6895 H   0  0  0
  -31.3074   11.9220   73.3033 H   0  0  0
  -33.0328   11.4086   70.4015 C   0  0  0
  -33.8546   10.5392   69.6417 C   0  0  0
  -34.3477    9.6561   70.0257 H   0  0  0
  -33.8813   10.9954   68.3340 C   0  0  0
  -33.0939   12.1101   68.2898 N   0  0  0
  -32.9074   12.6571   67.4577 H   0  0  0
  -32.6052   12.3853   69.5298 C   0  0  0
  -31.9707   13.2422   69.6769 H   0  0  0
  -34.5375   10.4872   67.1672 C   0  0  0
  -34.2635   10.8807   66.0427 O   0  0  0
  -35.4865    9.5296   67.4478 N   0  0  0
  -35.6970    9.3385   68.4172 H   0  0  0
  -36.3071    8.8816   66.4405 C   0  0  0
  -37.2984    8.7777   66.8759 H   0  0  0
  -36.4138    9.5731   65.5978 H   0  0  0
  -35.8286    7.5101   65.9255 C   0  0  2
  -36.6689    7.1689   65.3263 H   0  0  0
  -35.5662    6.3336   66.8597 C   0  0  0
  -35.2299    5.0988   66.3205 C   0  0  0
  -35.1439    4.9831   65.2459 H   0  0  0
  -34.9950    3.9907   67.1080 C   0  0  0
  -34.7280    3.0669   66.6080 H   0  0  0
  -35.0989    4.0428   68.4895 C   0  0  0
  -35.4718    5.2686   69.0263 C   0  0  0
  -35.5896    5.3824   70.0972 H   0  0  0
  -35.7049    6.3811   68.2389 C   0  0  0
  -36.0011    7.2927   68.7372 H   0  0  0
  -34.8407    2.9023   69.3078 N   0  0  0
  -34.4469    1.6291   68.6983 C   0  0  0
  -35.2426    1.2302   68.0634 H   0  0  0
  -34.2413    0.8720   69.4616 H   0  0  0
  -33.5632    1.7581   68.0668 H   0  0  0
  -35.0116    2.9777   70.7603 C   0  0  0
  -34.3546    3.7347   71.1973 H   0  0  0
  -34.7615    2.0227   71.2334 H   0  0  0
  -36.0385    3.2531   71.0199 H   0  0  0
  -34.6392    7.6230   65.0236 C   0  0  0
  -34.6831    7.5820   63.6456 C   0  0  0
  -35.4988    7.4342   62.9594 H   0  0  0
  -33.4351    7.8053   63.1588 N   0  0  0
  -33.2035    7.8641   62.1744 H   0  0  0
  -32.5691    8.0250   64.1900 C   0  0  0
  -33.2758    7.8677   65.3716 C   0  0  0
  -32.6022    8.0178   66.5776 C   0  0  0
  -33.1035    7.8868   67.5297 H   0  0  0
  -31.2787    8.3826   66.5541 C   0  0  0
  -30.7511    8.5410   67.4892 H   0  0  0
  -30.6169    8.5471   65.3628 C   0  0  0
  -29.5780    8.8326   65.3791 H   0  0  0
  -31.2353    8.3579   64.1484 C   0  0  0
  -30.6981    8.4819   63.2131 H   0  0  0
  2  1  2
  2  3  1
  2  7  1
  3  4  1
  3  5  1
  3  6  1
  7  8  1
  7 13  2
  8  9  1
  8 10  2
 10 11  1
 10 15  1
 11 12  1
 11 13  1
 13 14  1
 15 16  2
 15 17  1
 17 18  1
 17 19  1
 19 20  1
 19 21  1
 22 19  1
 22 23  1
 22 24  1
 22 43  1
 24 25  2
 24 32  1
 25 26  1
 25 27  1
 27 28  1
 27 29  2
 29 30  1
 29 34  1
 30 31  1
 30 32  2
 32 33  1
 34 35  1
 34 39  1
 35 36  1
 35 37  1
 35 38  1
 39 40  1
 39 41  1
 39 42  1
 43 44  2
 43 49  1
 44 45  1
 44 46  1
 46 47  1
 46 48  1
 48 49  2
 48 56  1
 49 50  1
 50 51  1
 50 52  2
 52 53  1
 52 54  1
 54 55  1
 54 56  2
 56 57  1
M  ZZC   1 o1
M  ZZC   2 c2
M  ZZC   3 c1
M  ZZC   4 h21
M  ZZC   5 h22
M  ZZC   6 h23
M  ZZC   7 c3
M  ZZC   8 c4
M  ZZC   9 h20
M  ZZC  10 c5
M  ZZC  11 n1
M  ZZC  12 h26
M  ZZC  13 c6
M  ZZC  14 h19
M  ZZC  15 c7
M  ZZC  16 o2
M  ZZC  17 n2
M  ZZC  18 h18
M  ZZC  19 c8
M  ZZC  20 h16
M  ZZC  21 h17
M  ZZC  22 c9
M  ZZC  23 h25
M  ZZC  24 c10
M  ZZC  25 c11
M  ZZC  26 h15
M  ZZC  27 c12
M  ZZC  28 h14
M  ZZC  29 c13
M  ZZC  30 c14
M  ZZC  31 h13
M  ZZC  32 c15
M  ZZC  33 h12
M  ZZC  34 n3
M  ZZC  35 c16
M  ZZC  36 h10
M  ZZC  37 h11
M  ZZC  38 h9
M  ZZC  39 c17
M  ZZC  40 h6
M  ZZC  41 h7
M  ZZC  42 h8
M  ZZC  43 c18
M  ZZC  44 c19
M  ZZC  45 h5
M  ZZC  46 n4
M  ZZC  47 h24
M  ZZC  48 c20
M  ZZC  49 c21
M  ZZC  50 c22
M  ZZC  51 h4
M  ZZC  52 c23
M  ZZC  53 h3
M  ZZC  54 c24
M  ZZC  55 h2
M  ZZC  56 c25
M  ZZC  57 h1
M  ZZM   1 7
M  ZZI   1 80
M  ZZM   2 3
M  ZZI   2 122
M  ZZM   3 1
M  ZZI   3 111
M  ZZM   4 5
M  ZZI   4 1
M  ZZM   5 5
M  ZZI   5 1
M  ZZM   6 5
M  ZZI   6 1
M  ZZM   7 64
M  ZZI   7 105
M  ZZM   8 64
M  ZZI   8 105
M  ZZM   9 5
M  ZZI   9 1
M  ZZM  10 63
M  ZZI  10 104
M  ZZM  11 39
M  ZZI  11 215
M  ZZM  12 23
M  ZZI  12 10
M  ZZM  13 63
M  ZZI  13 104
M  ZZM  14 5
M  ZZI  14 1
M  ZZM  15 3
M  ZZI  15 121
M  ZZM  16 7
M  ZZI  16 81
M  ZZM  17 10
M  ZZI  17 211
M  ZZM  18 28
M  ZZI  18 11
M  ZZM  19 1
M  ZZI  19 112
M  ZZM  20 5
M  ZZI  20 1
M  ZZM  21 5
M  ZZI  21 1
M  ZZM  22 1
M  ZZI  22 113
M  ZZM  23 5
M  ZZI  23 1
M  ZZM  24 37
M  ZZI  24 124
M  ZZM  25 37
M  ZZI  25 125
M  ZZM  26 5
M  ZZI  26 1
M  ZZM  27 37
M  ZZI  27 125
M  ZZM  28 5
M  ZZI  28 1
M  ZZM  29 37
M  ZZI  29 124
M  ZZM  30 37
M  ZZI  30 125
M  ZZM  31 5
M  ZZI  31 1
M  ZZM  32 37
M  ZZI  32 125
M  ZZM  33 5
M  ZZI  33 1
M  ZZM  34 40
M  ZZI  34 193
M  ZZM  35 1
M  ZZI  35 111
M  ZZM  36 5
M  ZZI  36 1
M  ZZM  37 5
M  ZZI  37 1
M  ZZM  38 5
M  ZZI  38 1
M  ZZM  39 1
M  ZZI  39 111
M  ZZM  40 5
M  ZZI  40 1
M  ZZM  41 5
M  ZZI  41 1
M  ZZM  42 5
M  ZZI  42 1
M  ZZM  43 64
M  ZZI  43 105
M  ZZM  44 63
M  ZZI  44 104
M  ZZM  45 5
M  ZZI  45 1
M  ZZM  46 39
M  ZZI  46 215
M  ZZM  47 23
M  ZZI  47 10
M  ZZM  48 63
M  ZZI  48 104
M  ZZM  49 64
M  ZZI  49 105
M  ZZM  50 37
M  ZZI  50 125
M  ZZM  51 5
M  ZZI  51 1
M  ZZM  52 37
M  ZZI  52 125
M  ZZM  53 5
M  ZZI  53 1
M  ZZM  54 37
M  ZZI  54 125
M  ZZM  55 5
M  ZZI  55 1
M  ZZM  56 37
M  ZZI  56 125
M  ZZM  57 5
M  ZZI  57 1
M  END
> <NAME>
Z116903828

> <Score>
-30.143824

> <Natom>
57

> <Nflex>
4

> <Hbond>
-3.884991

> <Hphob>
-8.262918

> <VwInt>
-34.022489

> <Eintl>
9.252153

> <Dsolv>
12.215173

> <SolEl>
11.640102

> <mfScore>
-120.777499

> <RecConf>
1

> <molLogP>
3.441711

$$$$
Z126242494
  MOLSOFT 11211612053D

 57 60  0  0  1  0  0  0  0  0999 V2000
  -36.4831    5.0370   71.9969 H   0  0  0
  -36.2872    5.4903   71.0209 C   0  0  0
  -37.2193    5.9678   70.7010 H   0  0  0
  -35.5109    6.2492   71.1626 H   0  0  0
  -35.8489    4.4545   70.0210 C   0  0  0
  -35.6566    3.1594   70.4759 C   0  0  0
  -35.8040    2.9119   71.5231 H   0  0  0
  -35.2991    2.1590   69.6072 C   0  0  0
  -35.1658    1.1436   69.9674 H   0  0  0
  -35.1197    2.4472   68.2770 C   0  0  0
  -34.8339    1.6388   67.6112 H   0  0  0
  -35.2777    3.7337   67.7815 C   0  0  0
  -34.9949    3.9084   66.3178 C   0  0  0
  -34.4883    4.8524   66.1114 H   0  0  0
  -35.9182    3.8338   65.7377 H   0  0  0
  -34.3196    3.1241   65.9627 H   0  0  0
  -35.6664    4.7598   68.6641 C   0  0  0
  -35.8239    6.1295   68.3043 N   0  0  0
  -35.7977    6.7797   69.0781 H   0  0  0
  -36.0860    6.6937   67.0615 C   0  0  0
  -36.4945    6.1161   66.0627 O   0  0  0
  -35.8317    8.1985   67.0517 C   0  0  0
  -36.4490    8.6734   66.2818 H   0  0  0
  -36.1672    8.6239   68.0011 H   0  0  0
  -34.3963    8.5021   66.8676 N   0  0  0
  -33.4672    8.4952   67.9910 C   0  0  0
  -33.0901    7.4774   68.1440 H   0  0  0
  -33.9926    8.7754   68.9080 H   0  0  0
  -32.3238    9.4538   67.6746 C   0  0  1
  -32.6728   10.4616   67.4165 H   0  0  0
  -31.3647    9.5408   68.8554 C   0  0  0
  -30.2511    9.0375   68.8000 O   0  0  0
  -31.7956   10.2239   69.9923 N   0  0  0
  -30.9145   10.2990   71.1491 C   0  0  0
  -29.9670    9.7897   70.9535 H   0  0  0
  -31.4186    9.7712   71.9657 H   0  0  0
  -30.6724   11.7529   71.5332 C   0  0  0
  -30.0763   11.8094   72.4482 H   0  0  0
  -30.1256   12.2852   70.7475 H   0  0  0
  -31.9230   12.4174   71.7709 O   0  0  0
  -32.7382   12.3988   70.5877 C   0  0  0
  -33.6688   12.9269   70.8095 H   0  0  0
  -32.2261   12.9444   69.7895 H   0  0  0
  -33.0381   10.9736   70.1474 C   0  0  0
  -33.6250   10.4578   70.9152 H   0  0  0
  -33.6239   10.9907   69.2272 H   0  0  0
  -31.5509    8.9574   66.5699 O   0  0  0
  -32.3663    8.5928   65.5000 C   0  0  0
  -33.7432    8.3882   65.6153 C   0  0  0
  -34.4289    8.0533   64.4570 C   0  0  0
  -35.4971    7.8877   64.4699 H   0  0  0
  -33.7765    7.8885   63.2579 C   0  0  0
  -34.3411    7.5991   62.3809 H   0  0  0
  -32.4194    8.0844   63.1705 C   0  0  0
  -31.9119    7.9610   62.2215 H   0  0  0
  -31.7117    8.4303   64.2962 C   0  0  0
  -30.6385    8.5759   64.2329 H   0  0  0
  2  1  1
  2  3  1
  2  4  1
  2  5  1
  5  6  1
  5 17  2
  6  7  1
  6  8  2
  8  9  1
  8 10  1
 10 11  1
 10 12  2
 12 13  1
 12 17  1
 13 14  1
 13 15  1
 13 16  1
 17 18  1
 18 19  1
 18 20  1
 20 21  2
 20 22  1
 22 23  1
 22 24  1
 22 25  1
 25 26  1
 25 49  1
 26 27  1
 26 28  1
 29 26  1
 29 30  1
 29 31  1
 29 47  1
 31 32  2
 31 33  1
 33 34  1
 33 44  1
 34 35  1
 34 36  1
 34 37  1
 37 38  1
 37 39  1
 37 40  1
 40 41  1
 41 42  1
 41 43  1
 41 44  1
 44 45  1
 44 46  1
 47 48  1
 48 49  2
 48 56  1
 49 50  1
 50 51  1
 50 52  2
 52 53  1
 52 54  1
 54 55  1
 54 56  2
 56 57  1
M  ZZC   1 h1
M  ZZC   2 c23
M  ZZC   3 h2
M  ZZC   4 h3
M  ZZC   5 c6
M  ZZC   6 c5
M  ZZC   7 h21
M  ZZC   8 c4
M  ZZC   9 h22
M  ZZC  10 c3
M  ZZC  11 h23
M  ZZC  12 c2
M  ZZC  13 c1
M  ZZC  14 h24
M  ZZC  15 h25
M  ZZC  16 h26
M  ZZC  17 c7
M  ZZC  18 n1
M  ZZC  19 h20
M  ZZC  20 c8
M  ZZC  21 o1
M  ZZC  22 c9
M  ZZC  23 h18
M  ZZC  24 h19
M  ZZC  25 n2
M  ZZC  26 c10
M  ZZC  27 h16
M  ZZC  28 h17
M  ZZC  29 c11
M  ZZC  30 h27
M  ZZC  31 c18
M  ZZC  32 o3
M  ZZC  33 n3
M  ZZC  34 c19
M  ZZC  35 h10
M  ZZC  36 h11
M  ZZC  37 c20
M  ZZC  38 h8
M  ZZC  39 h9
M  ZZC  40 o4
M  ZZC  41 c21
M  ZZC  42 h6
M  ZZC  43 h7
M  ZZC  44 c22
M  ZZC  45 h4
M  ZZC  46 h5
M  ZZC  47 o2
M  ZZC  48 c12
M  ZZC  49 c13
M  ZZC  50 c14
M  ZZC  51 h15
M  ZZC  52 c15
M  ZZC  53 h14
M  ZZC  54 c16
M  ZZC  55 h13
M  ZZC  56 c17
M  ZZC  57 h12
M  ZZM   1 5
M  ZZI   1 1
M  ZZM   2 1
M  ZZI   2 111
M  ZZM   3 5
M  ZZI   3 1
M  ZZM   4 5
M  ZZI   4 1
M  ZZM   5 37
M  ZZI   5 124
M  ZZM   6 37
M  ZZI   6 125
M  ZZM   7 5
M  ZZI   7 1
M  ZZM   8 37
M  ZZI   8 125
M  ZZM   9 5
M  ZZI   9 1
M  ZZM  10 37
M  ZZI  10 125
M  ZZM  11 5
M  ZZI  11 1
M  ZZM  12 37
M  ZZI  12 124
M  ZZM  13 1
M  ZZI  13 111
M  ZZM  14 5
M  ZZI  14 1
M  ZZM  15 5
M  ZZI  15 1
M  ZZM  16 5
M  ZZI  16 1
M  ZZM  17 37
M  ZZI  17 124
M  ZZM  18 10
M  ZZI  18 191
M  ZZM  19 28
M  ZZI  19 11
M  ZZM  20 3
M  ZZI  20 121
M  ZZM  21 7
M  ZZI  21 81
M  ZZM  22 1
M  ZZI  22 112
M  ZZM  23 5
M  ZZI  23 1
M  ZZM  24 5
M  ZZI  24 1
M  ZZM  25 40
M  ZZI  25 193
M  ZZM  26 1
M  ZZI  26 112
M  ZZM  27 5
M  ZZI  27 1
M  ZZM  28 5
M  ZZI  28 1
M  ZZM  29 1
M  ZZI  29 113
M  ZZM  30 5
M  ZZI  30 1
M  ZZM  31 3
M  ZZI  31 121
M  ZZM  32 7
M  ZZI  32 81
M  ZZM  33 10
M  ZZI  33 192
M  ZZM  34 1
M  ZZI  34 112
M  ZZM  35 5
M  ZZI  35 1
M  ZZM  36 5
M  ZZI  36 1
M  ZZM  37 1
M  ZZI  37 112
M  ZZM  38 5
M  ZZI  38 1
M  ZZM  39 5
M  ZZI  39 1
M  ZZM  40 6
M  ZZI  40 65
M  ZZM  41 1
M  ZZI  41 112
M  ZZM  42 5
M  ZZI  42 1
M  ZZM  43 5
M  ZZI  43 1
M  ZZM  44 1
M  ZZI  44 112
M  ZZM  45 5
M  ZZI  45 1
M  ZZM  46 5
M  ZZI  46 1
M  ZZM  47 6
M  ZZI  47 59
M  ZZM  48 37
M  ZZI  48 124
M  ZZM  49 37
M  ZZI  49 124
M  ZZM  50 37
M  ZZI  50 125
M  ZZM  51 5
M  ZZI  51 1
M  ZZM  52 37
M  ZZI  52 125
M  ZZM  53 5
M  ZZI  53 1
M  ZZM  54 37
M  ZZI  54 125
M  ZZM  55 5
M  ZZI  55 1
M  ZZM  56 37
M  ZZI  56 125
M  ZZM  57 5
M  ZZI  57 1
M  END
> <NAME>
Z126242494

> <Score>
-27.746465

> <Natom>
57

> <Nflex>
4

> <Hbond>
-2.555469

> <Hphob>
-7.739715

> <VwInt>
-33.49341

> <Eintl>
4.425642

> <Dsolv>
12.915912

> <SolEl>
8.046904

> <mfScore>
-107.914281

> <RecConf>
1

> <molLogP>
2.04679

$$$$
Z229469848
  MOLSOFT 11211612053D

 57 61  0  0  1  0  0  0  0  0999 V2000
  -30.8151    9.2941   67.7897 O   0  0  0
  -31.8818    9.8354   67.5201 C   0  0  0
  -32.4422   10.8581   68.3864 C   0  0  0
  -33.5001   11.6866   68.0686 C   0  0  0
  -34.0992   11.7886   67.1744 H   0  0  0
  -33.7794   12.4522   69.1563 N   0  0  0
  -34.5294   13.1295   69.1925 H   0  0  0
  -32.9169   12.1637   70.1787 C   0  0  0
  -32.8498   12.6918   71.4526 C   0  0  0
  -33.5510   13.4416   71.8025 H   0  0  0
  -31.8428   12.2310   72.2722 C   0  0  0
  -31.7470   12.6367   73.2733 H   0  0  0
  -30.9606   11.2645   71.8431 C   0  0  0
  -30.1791   10.9193   72.5124 H   0  0  0
  -31.0603   10.7196   70.5804 C   0  0  0
  -32.0518   11.1834   69.7215 C   0  0  0
  -30.3621    9.9505   70.2676 H   0  0  0
  -32.6897    9.4313   66.2865 C   0  0  1
  -32.8115   10.3323   65.6790 H   0  0  0
  -31.9165    8.4186   65.4397 C   0  0  0
  -32.4432    8.1715   64.5136 H   0  0  0
  -31.7394    7.4941   65.9888 H   0  0  0
  -30.9353    8.8123   65.1597 H   0  0  0
  -34.0262    8.9647   66.7525 N   0  0  0
  -34.9815    8.7157   65.6584 C   0  0  0
  -35.0604    9.6071   65.0276 H   0  0  0
  -34.6427    7.8979   65.0140 H   0  0  0
  -36.3648    8.3969   66.2218 C   0  0  0
  -36.7555    9.2864   66.7272 H   0  0  0
  -37.0515    8.2017   65.3973 H   0  0  0
  -36.3414    7.2268   67.2140 C   0  0  0
  -37.3303    7.1233   67.6698 H   0  0  0
  -35.3056    7.5609   68.2915 C   0  0  0
  -35.6280    8.4534   68.8396 H   0  0  0
  -35.2066    6.7786   69.0439 H   0  0  0
  -33.9450    7.8249   67.6821 C   0  0  0
  -33.5780    6.9337   67.1732 H   0  0  0
  -33.2525    8.0298   68.5030 H   0  0  0
  -36.0941    5.9070   66.4820 C   0  0  0
  -36.2817    5.7882   65.2775 O   0  0  0
  -35.6383    4.7044   67.2386 C   0  0  0
  -34.8767    3.7614   66.5660 C   0  0  0
  -34.6559    3.8795   65.5132 H   0  0  0
  -34.3583    2.6735   67.2378 C   0  0  0
  -33.7384    1.9558   66.7120 H   0  0  0
  -34.5972    2.5212   68.5866 C   0  0  0
  -35.4203    3.4245   69.2499 C   0  0  0
  -35.9482    4.5092   68.5783 C   0  0  0
  -36.6119    5.1814   69.1135 H   0  0  0
  -35.7742    3.3006   70.5876 O   0  0  0
  -35.4379    1.9895   71.0352 C   0  0  0
  -35.5243    1.9821   72.1257 H   0  0  0
  -36.1640    1.2759   70.6290 H   0  0  0
  -34.0255    1.6502   70.6203 C   0  0  0
  -33.3142    2.4366   70.8995 H   0  0  0
  -33.7060    0.7210   71.0986 H   0  0  0
  -33.9735    1.4486   69.2100 O   0  0  0
  2  1  2
  2  3  1
 18  2  1
  3  4  2
  3 16  1
  4  5  1
  4  6  1
  6  7  1
  6  8  1
  8  9  1
  8 16  2
  9 10  1
  9 11  2
 11 12  1
 11 13  1
 13 14  1
 13 15  2
 15 16  1
 15 17  1
 18 19  1
 18 20  1
 18 24  1
 20 21  1
 20 22  1
 20 23  1
 24 25  1
 24 36  1
 25 26  1
 25 27  1
 25 28  1
 28 29  1
 28 30  1
 28 31  1
 31 32  1
 31 33  1
 31 39  1
 33 34  1
 33 35  1
 33 36  1
 36 37  1
 36 38  1
 39 40  2
 39 41  1
 41 42  2
 41 48  1
 42 43  1
 42 44  1
 44 45  1
 44 46  2
 46 47  1
 46 57  1
 47 48  2
 47 50  1
 48 49  1
 50 51  1
 51 52  1
 51 53  1
 51 54  1
 54 55  1
 54 56  1
 54 57  1
M  ZZC   1 o1
M  ZZC   2 c3
M  ZZC   3 c4
M  ZZC   4 c5
M  ZZC   5 h21
M  ZZC   6 n1
M  ZZC   7 h25
M  ZZC   8 c6
M  ZZC   9 c11
M  ZZC  10 h17
M  ZZC  11 c10
M  ZZC  12 h18
M  ZZC  13 c9
M  ZZC  14 h19
M  ZZC  15 c8
M  ZZC  16 c7
M  ZZC  17 h20
M  ZZC  18 c2
M  ZZC  19 h26
M  ZZC  20 c1
M  ZZC  21 h22
M  ZZC  22 h23
M  ZZC  23 h24
M  ZZC  24 n2
M  ZZC  25 c12
M  ZZC  26 h15
M  ZZC  27 h16
M  ZZC  28 c13
M  ZZC  29 h13
M  ZZC  30 h14
M  ZZC  31 c14
M  ZZC  32 h12
M  ZZC  33 c15
M  ZZC  34 h10
M  ZZC  35 h11
M  ZZC  36 c16
M  ZZC  37 h8
M  ZZC  38 h9
M  ZZC  39 c17
M  ZZC  40 o2
M  ZZC  41 c18
M  ZZC  42 c19
M  ZZC  43 h7
M  ZZC  44 c20
M  ZZC  45 h6
M  ZZC  46 c21
M  ZZC  47 c22
M  ZZC  48 c23
M  ZZC  49 h5
M  ZZC  50 o3
M  ZZC  51 c24
M  ZZC  52 h3
M  ZZC  53 h4
M  ZZC  54 c25
M  ZZC  55 h1
M  ZZC  56 h2
M  ZZC  57 o4
M  ZZM   1 7
M  ZZI   1 80
M  ZZM   2 3
M  ZZI   2 122
M  ZZM   3 64
M  ZZI   3 105
M  ZZM   4 63
M  ZZI   4 104
M  ZZM   5 5
M  ZZI   5 1
M  ZZM   6 39
M  ZZI   6 215
M  ZZM   7 23
M  ZZI   7 10
M  ZZM   8 63
M  ZZI   8 104
M  ZZM   9 37
M  ZZI   9 125
M  ZZM  10 5
M  ZZI  10 1
M  ZZM  11 37
M  ZZI  11 125
M  ZZM  12 5
M  ZZI  12 1
M  ZZM  13 37
M  ZZI  13 125
M  ZZM  14 5
M  ZZI  14 1
M  ZZM  15 37
M  ZZI  15 125
M  ZZM  16 64
M  ZZI  16 105
M  ZZM  17 5
M  ZZI  17 1
M  ZZM  18 1
M  ZZI  18 113
M  ZZM  19 5
M  ZZI  19 1
M  ZZM  20 1
M  ZZI  20 111
M  ZZM  21 5
M  ZZI  21 1
M  ZZM  22 5
M  ZZI  22 1
M  ZZM  23 5
M  ZZI  23 1
M  ZZM  24 8
M  ZZI  24 216
M  ZZM  25 1
M  ZZI  25 112
M  ZZM  26 5
M  ZZI  26 1
M  ZZM  27 5
M  ZZI  27 1
M  ZZM  28 1
M  ZZI  28 112
M  ZZM  29 5
M  ZZI  29 1
M  ZZM  30 5
M  ZZI  30 1
M  ZZM  31 1
M  ZZI  31 113
M  ZZM  32 5
M  ZZI  32 1
M  ZZM  33 1
M  ZZI  33 112
M  ZZM  34 5
M  ZZI  34 1
M  ZZM  35 5
M  ZZI  35 1
M  ZZM  36 1
M  ZZI  36 112
M  ZZM  37 5
M  ZZI  37 1
M  ZZM  38 5
M  ZZI  38 1
M  ZZM  39 3
M  ZZI  39 122
M  ZZM  40 7
M  ZZI  40 80
M  ZZM  41 37
M  ZZI  41 124
M  ZZM  42 37
M  ZZI  42 125
M  ZZM  43 5
M  ZZI  43 1
M  ZZM  44 37
M  ZZI  44 125
M  ZZM  45 5
M  ZZI  45 1
M  ZZM  46 37
M  ZZI  46 124
M  ZZM  47 37
M  ZZI  47 124
M  ZZM  48 37
M  ZZI  48 125
M  ZZM  49 5
M  ZZI  49 1
M  ZZM  50 6
M  ZZI  50 59
M  ZZM  51 1
M  ZZI  51 112
M  ZZM  52 5
M  ZZI  52 1
M  ZZM  53 5
M  ZZI  53 1
M  ZZM  54 1
M  ZZI  54 112
M  ZZM  55 5
M  ZZI  55 1
M  ZZM  56 5
M  ZZI  56 1
M  ZZM  57 6
M  ZZI  57 59
M  END
> <NAME>
Z229469848

> <Score>
-26.803527

> <Natom>
57

> <Nflex>
3

> <Hbond>
-4.217428

> <Hphob>
-8.027156

> <VwInt>
-28.142085

> <Eintl>
7.953679

> <Dsolv>
13.360461

> <SolEl>
8.434089

> <mfScore>
-88.573607

> <RecConf>
1

> <molLogP>
3.249517

$$$$
Z1532893740
  MOLSOFT 11211612053D

 57 61  0  0  0  0  0  0  0  0999 V2000
  -34.8500    9.3777   69.9065 F   0  0  0
  -33.9428   10.3415   70.1223 C   0  0  0
  -33.6397   11.2425   69.1084 C   0  0  0
  -32.6923   12.2215   69.3705 C   0  0  0
  -32.4284   12.9469   68.6079 H   0  0  0
  -32.0689   12.2785   70.6029 C   0  0  0
  -31.3138   13.0292   70.8050 H   0  0  0
  -32.3972   11.3724   71.5842 C   0  0  0
  -31.7890   11.4397   72.7780 F   0  0  0
  -33.3366   10.3966   71.3559 C   0  0  0
  -33.5933    9.6825   72.1299 H   0  0  0
  -34.3251   11.1620   67.7636 C   0  0  0
  -34.4577   12.1859   67.3994 H   0  0  0
  -35.3315   10.7675   67.9375 H   0  0  0
  -33.6058   10.3210   66.6814 C   0  0  0
  -32.5281   11.1156   66.1706 O   0  0  0
  -31.9054   11.3037   66.8981 H   0  0  0
  -33.0179    9.0130   67.2578 C   0  0  0
  -33.6788    8.6251   68.0315 H   0  0  0
  -32.0464    9.1943   67.7316 H   0  0  0
  -32.8651    7.9097   66.2181 C   0  0  2
  -32.5684    6.9853   66.7064 H   0  0  0
  -31.9071    8.3102   65.1011 C   0  0  0
  -31.4448    7.4305   64.6510 H   0  0  0
  -31.0919    8.9551   65.4420 H   0  0  0
  -32.7903    8.9561   64.0466 C   0  0  0
  -32.7248    8.3758   63.1192 H   0  0  0
  -32.4875    9.9774   63.8076 H   0  0  0
  -34.1970    8.8683   64.6191 C   0  0  2
  -34.9500    8.7000   63.8433 H   0  0  0
  -34.5664   10.0749   65.4874 C   0  0  0
  -34.5951   10.9558   64.8454 H   0  0  0
  -35.5827    9.9107   65.8629 H   0  0  0
  -34.1136    7.7668   65.5228 N   0  0  0
  -35.1833    6.9042   65.7504 C   0  0  0
  -36.1430    6.7843   65.0036 O   0  0  0
  -35.1993    6.1403   67.0161 C   0  0  0
  -34.8812    4.7944   67.0128 C   0  0  0
  -34.5829    4.2898   66.0995 H   0  0  0
  -34.9352    4.1192   68.2274 C   0  0  0
  -34.6451    2.7821   68.6233 C   0  0  0
  -34.1377    1.7065   67.7479 C   0  0  0
  -34.3977    0.7229   68.1461 H   0  0  0
  -33.0505    1.7568   67.6592 H   0  0  0
  -34.5749    1.7881   66.7496 H   0  0  0
  -34.9000    2.6876   69.9773 C   0  0  0
  -34.7748    1.5437   70.9105 C   0  0  0
  -35.4500    0.7359   70.6146 H   0  0  0
  -35.0252    1.8325   71.9356 H   0  0  0
  -33.7517    1.1565   70.9092 H   0  0  0
  -35.3330    3.9138   70.3992 N   0  0  0
  -35.6002    4.1395   71.3493 H   0  0  0
  -35.3546    4.8017   69.3587 C   0  0  0
  -35.7202    6.1326   69.3567 C   0  0  0
  -36.0523    6.6411   70.2566 H   0  0  0
  -35.6404    6.7936   68.1522 C   0  0  0
  -35.9316    7.8382   68.1022 H   0  0  0
  2  1  1
  2  3  1
  2 10  2
  3  4  2
  3 12  1
  4  5  1
  4  6  1
  6  7  1
  6  8  2
  8  9  1
  8 10  1
 10 11  1
 12 13  1
 12 14  1
 12 15  1
 15 16  1
 15 18  1
 15 31  1
 16 17  1
 18 19  1
 18 20  1
 21 18  1
 21 22  1
 21 23  1
 21 34  1
 23 24  1
 23 25  1
 23 26  1
 26 27  1
 26 28  1
 29 26  1
 29 30  1
 29 31  1
 29 34  1
 31 32  1
 31 33  1
 34 35  1
 35 36  2
 35 37  1
 37 38  2
 37 56  1
 38 39  1
 38 40  1
 40 41  1
 40 53  2
 41 42  1
 41 46  2
 42 43  1
 42 44  1
 42 45  1
 46 47  1
 46 51  1
 47 48  1
 47 49  1
 47 50  1
 51 52  1
 51 53  1
 53 54  1
 54 55  1
 54 56  2
 56 57  1
M  ZZC   1 f1
M  ZZC   2 c24
M  ZZC   3 c19
M  ZZC   4 c20
M  ZZC   5 h7
M  ZZC   6 c21
M  ZZC   7 h6
M  ZZC   8 c22
M  ZZC   9 f2
M  ZZC  10 c23
M  ZZC  11 h5
M  ZZC  12 c18
M  ZZC  13 h8
M  ZZC  14 h9
M  ZZC  15 c16
M  ZZC  16 o2
M  ZZC  17 h4
M  ZZC  18 c15
M  ZZC  19 h12
M  ZZC  20 h13
M  ZZC  21 c14
M  ZZC  22 h24
M  ZZC  23 c13
M  ZZC  24 h14
M  ZZC  25 h15
M  ZZC  26 c12
M  ZZC  27 h16
M  ZZC  28 h17
M  ZZC  29 c11
M  ZZC  30 h25
M  ZZC  31 c17
M  ZZC  32 h10
M  ZZC  33 h11
M  ZZC  34 n2
M  ZZC  35 c10
M  ZZC  36 o1
M  ZZC  37 c7
M  ZZC  38 c6
M  ZZC  39 h20
M  ZZC  40 c5
M  ZZC  41 c2
M  ZZC  42 c1
M  ZZC  43 h21
M  ZZC  44 h22
M  ZZC  45 h23
M  ZZC  46 c3
M  ZZC  47 c25
M  ZZC  48 h1
M  ZZC  49 h2
M  ZZC  50 h3
M  ZZC  51 n1
M  ZZC  52 h26
M  ZZC  53 c4
M  ZZC  54 c9
M  ZZC  55 h18
M  ZZC  56 c8
M  ZZC  57 h19
M  ZZM   1 11
M  ZZI   1 90
M  ZZM   2 37
M  ZZI   2 124
M  ZZM   3 37
M  ZZI   3 124
M  ZZM   4 37
M  ZZI   4 125
M  ZZM   5 5
M  ZZI   5 1
M  ZZM   6 37
M  ZZI   6 125
M  ZZM   7 5
M  ZZI   7 1
M  ZZM   8 37
M  ZZI   8 124
M  ZZM   9 11
M  ZZI   9 90
M  ZZM  10 37
M  ZZI  10 125
M  ZZM  11 5
M  ZZI  11 1
M  ZZM  12 1
M  ZZI  12 112
M  ZZM  13 5
M  ZZI  13 1
M  ZZM  14 5
M  ZZI  14 1
M  ZZM  15 1
M  ZZI  15 110
M  ZZM  16 6
M  ZZI  16 60
M  ZZM  17 21
M  ZZI  17 20
M  ZZM  18 1
M  ZZI  18 112
M  ZZM  19 5
M  ZZI  19 1
M  ZZM  20 5
M  ZZI  20 1
M  ZZM  21 1
M  ZZI  21 113
M  ZZM  22 5
M  ZZI  22 1
M  ZZM  23 1
M  ZZI  23 112
M  ZZM  24 5
M  ZZI  24 1
M  ZZM  25 5
M  ZZI  25 1
M  ZZM  26 1
M  ZZI  26 112
M  ZZM  27 5
M  ZZI  27 1
M  ZZM  28 5
M  ZZI  28 1
M  ZZM  29 1
M  ZZI  29 113
M  ZZM  30 5
M  ZZI  30 1
M  ZZM  31 1
M  ZZI  31 112
M  ZZM  32 5
M  ZZI  32 1
M  ZZM  33 5
M  ZZI  33 1
M  ZZM  34 10
M  ZZI  34 192
M  ZZM  35 3
M  ZZI  35 121
M  ZZM  36 7
M  ZZI  36 81
M  ZZM  37 37
M  ZZI  37 124
M  ZZM  38 37
M  ZZI  38 125
M  ZZM  39 5
M  ZZI  39 1
M  ZZM  40 64
M  ZZI  40 105
M  ZZM  41 64
M  ZZI  41 105
M  ZZM  42 1
M  ZZI  42 111
M  ZZM  43 5
M  ZZI  43 1
M  ZZM  44 5
M  ZZI  44 1
M  ZZM  45 5
M  ZZI  45 1
M  ZZM  46 63
M  ZZI  46 104
M  ZZM  47 1
M  ZZI  47 111
M  ZZM  48 5
M  ZZI  48 1
M  ZZM  49 5
M  ZZI  49 1
M  ZZM  50 5
M  ZZI  50 1
M  ZZM  51 39
M  ZZI  51 215
M  ZZM  52 23
M  ZZI  52 10
M  ZZM  53 63
M  ZZI  53 104
M  ZZM  54 37
M  ZZI  54 125
M  ZZM  55 5
M  ZZI  55 1
M  ZZM  56 37
M  ZZI  56 125
M  ZZM  57 5
M  ZZI  57 1
M  END
> <NAME>
Z1532893740

> <Score>
-25.683047

> <Natom>
57

> <Nflex>
4

> <Hbond>
-3.8224

> <Hphob>
-7.927108

> <VwInt>
-23.317292

> <Eintl>
5.810801

> <Dsolv>
10.668809

> <SolEl>
3.355261

> <mfScore>
-93.957962

> <RecConf>
1

> <molLogP>
5.218494

$$$$
Z26997253
  MOLSOFT 11211612053D

 57 60  0  0  1  0  0  0  0  0999 V2000
  -31.1799   13.2764   70.9645 H   0  0  0
  -31.4986   12.4148   71.4255 N   0  3  0
  -32.3472   12.8399   72.5992 C   0  0  0
  -32.6216   11.9611   73.1890 H   0  0  0
  -33.2347   13.3596   72.2336 H   0  0  0
  -31.7554   13.5292   73.2091 H   0  0  0
  -30.2501   11.7312   71.8965 C   0  0  0
  -29.6606   11.4677   71.0163 H   0  0  0
  -30.5196   10.8359   72.4653 H   0  0  0
  -29.6995   12.4356   72.5252 H   0  0  0
  -32.2134   11.5985   70.3488 C   0  0  1
  -31.4398   11.3589   69.6150 H   0  0  0
  -32.7715   10.2879   70.8037 C   0  0  0
  -32.4624    8.9812   70.4820 C   0  0  0
  -31.6898    8.6540   69.7997 H   0  0  0
  -33.3646    8.1657   71.2036 C   0  0  0
  -33.4266    7.0870   71.2012 H   0  0  0
  -34.1642    9.0218   71.9231 C   0  0  0
  -34.9815    8.8766   72.6156 H   0  0  0
  -33.8197   10.3166   71.6770 O   0  0  0
  -33.2707   12.4455   69.6147 C   0  0  0
  -34.0110   12.8533   70.3031 H   0  0  0
  -32.7981   13.2821   69.0913 H   0  0  0
  -34.0014   11.6440   68.6579 N   0  0  0
  -34.7995   11.1114   68.9883 H   0  0  0
  -33.5635   11.4241   67.3775 C   0  0  0
  -32.6866   12.0664   66.8238 O   0  0  0
  -34.2042   10.3012   66.7780 C   0  0  0
  -33.9810    9.7715   65.5110 C   0  0  0
  -33.2995   10.1621   64.7680 H   0  0  0
  -34.7573    8.6086   65.3966 C   0  0  0
  -34.9225    7.6098   64.4288 C   0  0  0
  -34.2195    7.4476   63.1438 C   0  0  0
  -34.9345    7.3999   62.3226 H   0  0  0
  -33.6264    6.5308   63.1476 H   0  0  0
  -33.5389    8.2808   62.9525 H   0  0  0
  -35.8518    6.7272   64.8583 N   0  0  0
  -36.1127    7.1060   66.1501 N   0  0  0
  -35.5060    8.2872   66.4548 C   0  0  0
  -35.3503    9.3877   67.7376 S   0  0  0
  -36.8898    6.2536   67.0432 C   0  0  0
  -37.7661    5.9098   66.4898 H   0  0  0
  -37.2466    6.8700   67.8727 H   0  0  0
  -36.0665    5.0907   67.5424 C   0  0  0
  -35.7719    4.9563   68.8906 C   0  0  0
  -36.1100    5.7014   69.6045 H   0  0  0
  -35.0670    3.8611   69.3505 C   0  0  0
  -34.8689    3.7684   70.4138 H   0  0  0
  -34.6275    2.8832   68.4737 C   0  0  0
  -33.9139    1.6639   68.9724 C   0  0  0
  -33.1685    1.3308   68.2440 H   0  0  0
  -34.6280    0.8523   69.1433 H   0  0  0
  -33.3909    1.8744   69.9096 H   0  0  0
  -34.9134    3.0189   67.1278 C   0  0  0
  -34.5959    2.2583   66.4210 H   0  0  0
  -35.6248    4.1059   66.6699 C   0  0  0
  -35.8476    4.1696   65.6100 H   0  0  0
  2  1  1
  2  3  1
  2  7  1
 11  2  1
  3  4  1
  3  5  1
  3  6  1
  7  8  1
  7  9  1
  7 10  1
 11 12  1
 11 13  1
 11 21  1
 13 14  2
 13 20  1
 14 15  1
 14 16  1
 16 17  1
 16 18  2
 18 19  1
 18 20  1
 21 22  1
 21 23  1
 21 24  1
 24 25  1
 24 26  1
 26 27  2
 26 28  1
 28 29  2
 28 40  1
 29 30  1
 29 31  1
 31 32  1
 31 39  2
 32 33  1
 32 37  2
 33 34  1
 33 35  1
 33 36  1
 37 38  1
 38 39  1
 38 41  1
 39 40  1
 41 42  1
 41 43  1
 41 44  1
 44 45  1
 44 56  2
 45 46  1
 45 47  2
 47 48  1
 47 49  1
 49 50  1
 49 54  2
 50 51  1
 50 52  1
 50 53  1
 54 55  1
 54 56  1
 56 57  1
M  ZZC   1 h1
M  ZZC   2 n4
M  ZZC   3 c20
M  ZZC   4 h10
M  ZZC   5 h8
M  ZZC   6 h9
M  ZZC   7 c21
M  ZZC   8 h5
M  ZZC   9 h6
M  ZZC  10 h7
M  ZZC  11 c15
M  ZZC  12 h27
M  ZZC  13 c16
M  ZZC  14 c17
M  ZZC  15 h13
M  ZZC  16 c18
M  ZZC  17 h12
M  ZZC  18 c19
M  ZZC  19 h11
M  ZZC  20 o2
M  ZZC  21 c14
M  ZZC  22 h14
M  ZZC  23 h15
M  ZZC  24 n2
M  ZZC  25 h16
M  ZZC  26 c13
M  ZZC  27 o1
M  ZZC  28 c12
M  ZZC  29 c11
M  ZZC  30 h17
M  ZZC  31 c10
M  ZZC  32 c22
M  ZZC  33 c23
M  ZZC  34 h2
M  ZZC  35 h3
M  ZZC  36 h4
M  ZZC  37 n3
M  ZZC  38 n1
M  ZZC  39 c9
M  ZZC  40 s1
M  ZZC  41 c8
M  ZZC  42 h18
M  ZZC  43 h19
M  ZZC  44 c5
M  ZZC  45 c4
M  ZZC  46 h22
M  ZZC  47 c3
M  ZZC  48 h23
M  ZZC  49 c2
M  ZZC  50 c1
M  ZZC  51 h24
M  ZZC  52 h25
M  ZZC  53 h26
M  ZZC  54 c7
M  ZZC  55 h20
M  ZZC  56 c6
M  ZZC  57 h21
M  ZZM   1 36
M  ZZI   1 17
M  ZZM   2 34
M  ZZI   2 231
M  ZZM   3 1
M  ZZI   3 111
M  ZZM   4 5
M  ZZI   4 1
M  ZZM   5 5
M  ZZI   5 1
M  ZZM   6 5
M  ZZI   6 1
M  ZZM   7 1
M  ZZI   7 111
M  ZZM   8 5
M  ZZI   8 1
M  ZZM   9 5
M  ZZI   9 1
M  ZZM  10 5
M  ZZI  10 1
M  ZZM  11 1
M  ZZI  11 113
M  ZZM  12 5
M  ZZI  12 1
M  ZZM  13 63
M  ZZI  13 104
M  ZZM  14 64
M  ZZI  14 105
M  ZZM  15 5
M  ZZI  15 1
M  ZZM  16 64
M  ZZI  16 105
M  ZZM  17 5
M  ZZI  17 1
M  ZZM  18 63
M  ZZI  18 104
M  ZZM  19 5
M  ZZI  19 1
M  ZZM  20 59
M  ZZI  20 56
M  ZZM  21 1
M  ZZI  21 112
M  ZZM  22 5
M  ZZI  22 1
M  ZZM  23 5
M  ZZI  23 1
M  ZZM  24 10
M  ZZI  24 211
M  ZZM  25 28
M  ZZI  25 11
M  ZZM  26 3
M  ZZI  26 121
M  ZZM  27 7
M  ZZI  27 81
M  ZZM  28 63
M  ZZI  28 104
M  ZZM  29 64
M  ZZI  29 105
M  ZZM  30 5
M  ZZI  30 1
M  ZZM  31 64
M  ZZI  31 105
M  ZZM  32 64
M  ZZI  32 105
M  ZZM  33 1
M  ZZI  33 111
M  ZZM  34 5
M  ZZI  34 1
M  ZZM  35 5
M  ZZI  35 1
M  ZZM  36 5
M  ZZI  36 1
M  ZZM  37 65
M  ZZI  37 207
M  ZZM  38 39
M  ZZI  38 215
M  ZZM  39 63
M  ZZI  39 104
M  ZZM  40 44
M  ZZI  40 248
M  ZZM  41 1
M  ZZI  41 112
M  ZZM  42 5
M  ZZI  42 1
M  ZZM  43 5
M  ZZI  43 1
M  ZZM  44 37
M  ZZI  44 124
M  ZZM  45 37
M  ZZI  45 125
M  ZZM  46 5
M  ZZI  46 1
M  ZZM  47 37
M  ZZI  47 125
M  ZZM  48 5
M  ZZI  48 1
M  ZZM  49 37
M  ZZI  49 124
M  ZZM  50 1
M  ZZI  50 111
M  ZZM  51 5
M  ZZI  51 1
M  ZZM  52 5
M  ZZI  52 1
M  ZZM  53 5
M  ZZI  53 1
M  ZZM  54 37
M  ZZI  54 125
M  ZZM  55 5
M  ZZI  55 1
M  ZZM  56 37
M  ZZI  56 125
M  ZZM  57 5
M  ZZI  57 1
M  CHG  1   2   1
M  END
> <NAME>
Z26997253

> <Score>
-25.666485

> <Natom>
57

> <Nflex>
6

> <Hbond>
-2.929272

> <Hphob>
-8.875485

> <VwInt>
-31.695185

> <Eintl>
8.21514

> <Dsolv>
12.992336

> <SolEl>
9.154668

> <mfScore>
-107.504541

> <RecConf>
1

> <molLogP>
2.747398

$$$$
Z109814672
  MOLSOFT 11211612053D

 58 61  0  0  0  0  0  0  0  0999 V2000
  -35.2617    7.1335   69.7154 Cl  0  0  0
  -35.1735    5.5840   68.9563 C   0  0  0
  -35.2871    5.1880   67.6417 C   0  0  0
  -35.0207    3.7913   67.6995 C   0  0  0
  -34.8927    2.8480   66.5694 C   0  0  0
  -34.7825    1.8219   66.9270 H   0  0  0
  -34.0114    3.0863   65.9687 H   0  0  0
  -35.7683    2.8986   65.9203 H   0  0  0
  -34.8254    3.3526   68.9536 N   0  0  0
  -34.9624    4.4619   69.7137 N   0  0  0
  -34.8212    4.3643   71.1679 C   0  0  0
  -34.0709    3.5918   71.3699 H   0  0  0
  -34.4186    5.3060   71.5542 H   0  0  0
  -36.1376    4.0316   71.8217 C   0  0  0
  -37.1496    4.9776   71.9343 C   0  0  0
  -37.0086    5.9925   71.5807 H   0  0  0
  -38.3658    4.6458   72.4887 C   0  0  0
  -39.1514    5.3927   72.5513 H   0  0  0
  -38.5845    3.3657   72.9484 C   0  0  0
  -39.5517    3.0851   73.3445 H   0  0  0
  -37.5758    2.4313   72.8844 C   0  0  0
  -37.7456    1.4251   73.2529 H   0  0  0
  -36.3643    2.7553   72.3127 C   0  0  0
  -35.5970    1.9902   72.2397 H   0  0  0
  -35.5769    6.0156   66.4890 C   0  0  0
  -36.0213    5.5721   65.4415 O   0  0  0
  -35.2969    7.3400   66.6858 N   0  0  0
  -34.9484    7.6461   67.5863 H   0  0  0
  -35.4517    8.3278   65.6496 C   0  0  0
  -35.2924    7.8641   64.6711 H   0  0  0
  -36.4809    8.7003   65.6872 H   0  0  0
  -34.4795    9.4101   65.9283 C   0  0  0
  -33.3039    9.7401   65.2046 C   0  0  0
  -32.7342    9.0343   64.0307 C   0  0  0
  -32.1999    8.1353   64.3522 H   0  0  0
  -32.0303    9.6643   63.4822 H   0  0  0
  -33.5189    8.7274   63.3339 H   0  0  0
  -32.6804   10.8075   65.7248 N   0  0  0
  -33.3681   11.0612   66.8590 N   0  0  0
  -34.4826   10.2749   67.0023 C   0  0  0
  -35.3981   10.3786   68.1574 C   0  0  0
  -34.9629    9.9126   69.0435 H   0  0  0
  -36.3431    9.8801   67.9387 H   0  0  0
  -35.6109   11.4197   68.3952 H   0  0  0
  -32.9054   12.1093   67.7688 C   0  0  0
  -33.7154   12.8419   67.8378 H   0  0  0
  -32.0470   12.6032   67.3111 H   0  0  0
  -32.5317   11.5644   69.1254 C   0  0  0
  -31.7014   10.4572   69.2620 C   0  0  0
  -31.3118    9.9472   68.3858 H   0  0  0
  -31.3428    9.9996   70.5136 C   0  0  0
  -30.6891    9.1386   70.6074 H   0  0  0
  -31.8052   10.6405   71.6441 C   0  0  0
  -31.5204   10.2816   72.6280 H   0  0  0
  -32.6242   11.7433   71.5211 C   0  0  0
  -32.9859   12.2543   72.4082 H   0  0  0
  -32.9804   12.2032   70.2707 C   0  0  0
  -33.6193   13.0763   70.1937 H   0  0  0
  2  1  1
  2  3  2
  2 10  1
  3  4  1
  3 25  1
  4  5  1
  4  9  2
  5  6  1
  5  7  1
  5  8  1
  9 10  1
 10 11  1
 11 12  1
 11 13  1
 11 14  1
 14 15  2
 14 23  1
 15 16  1
 15 17  1
 17 18  1
 17 19  2
 19 20  1
 19 21  1
 21 22  1
 21 23  2
 23 24  1
 25 26  2
 25 27  1
 27 28  1
 27 29  1
 29 30  1
 29 31  1
 29 32  1
 32 33  1
 32 40  2
 33 34  1
 33 38  2
 34 35  1
 34 36  1
 34 37  1
 38 39  1
 39 40  1
 39 45  1
 40 41  1
 41 42  1
 41 43  1
 41 44  1
 45 46  1
 45 47  1
 45 48  1
 48 49  1
 48 57  2
 49 50  1
 49 51  2
 51 52  1
 51 53  1
 53 54  1
 53 55  2
 55 56  1
 55 57  1
 57 58  1
M  ZZC   1 &Cl1
M  ZZC   2 c17
M  ZZC   3 c15
M  ZZC   4 c16
M  ZZC   5 c25
M  ZZC   6 h1
M  ZZC   7 h2
M  ZZC   8 h3
M  ZZC   9 n4
M  ZZC  10 n5
M  ZZC  11 c18
M  ZZC  12 h10
M  ZZC  13 h9
M  ZZC  14 c19
M  ZZC  15 c20
M  ZZC  16 h8
M  ZZC  17 c21
M  ZZC  18 h7
M  ZZC  19 c22
M  ZZC  20 h6
M  ZZC  21 c23
M  ZZC  22 h5
M  ZZC  23 c24
M  ZZC  24 h4
M  ZZC  25 c14
M  ZZC  26 o1
M  ZZC  27 n3
M  ZZC  28 h11
M  ZZC  29 c13
M  ZZC  30 h12
M  ZZC  31 h13
M  ZZC  32 c3
M  ZZC  33 c2
M  ZZC  34 c1
M  ZZC  35 h24
M  ZZC  36 h25
M  ZZC  37 h26
M  ZZC  38 n2
M  ZZC  39 n1
M  ZZC  40 c4
M  ZZC  41 c12
M  ZZC  42 h14
M  ZZC  43 h15
M  ZZC  44 h16
M  ZZC  45 c5
M  ZZC  46 h22
M  ZZC  47 h23
M  ZZC  48 c6
M  ZZC  49 c11
M  ZZC  50 h17
M  ZZC  51 c10
M  ZZC  52 h18
M  ZZC  53 c9
M  ZZC  54 h19
M  ZZC  55 c8
M  ZZC  56 h20
M  ZZC  57 c7
M  ZZC  58 h21
M  ZZM   1 12
M  ZZI   1 92
M  ZZM   2 63
M  ZZI   2 104
M  ZZM   3 64
M  ZZI   3 105
M  ZZM   4 64
M  ZZI   4 105
M  ZZM   5 1
M  ZZI   5 111
M  ZZM   6 5
M  ZZI   6 1
M  ZZM   7 5
M  ZZI   7 1
M  ZZM   8 5
M  ZZI   8 1
M  ZZM   9 65
M  ZZI   9 207
M  ZZM  10 39
M  ZZI  10 215
M  ZZM  11 1
M  ZZI  11 112
M  ZZM  12 5
M  ZZI  12 1
M  ZZM  13 5
M  ZZI  13 1
M  ZZM  14 37
M  ZZI  14 124
M  ZZM  15 37
M  ZZI  15 125
M  ZZM  16 5
M  ZZI  16 1
M  ZZM  17 37
M  ZZI  17 125
M  ZZM  18 5
M  ZZI  18 1
M  ZZM  19 37
M  ZZI  19 125
M  ZZM  20 5
M  ZZI  20 1
M  ZZM  21 37
M  ZZI  21 125
M  ZZM  22 5
M  ZZI  22 1
M  ZZM  23 37
M  ZZI  23 125
M  ZZM  24 5
M  ZZI  24 1
M  ZZM  25 3
M  ZZI  25 121
M  ZZM  26 7
M  ZZI  26 81
M  ZZM  27 10
M  ZZI  27 211
M  ZZM  28 28
M  ZZI  28 11
M  ZZM  29 1
M  ZZI  29 112
M  ZZM  30 5
M  ZZI  30 1
M  ZZM  31 5
M  ZZI  31 1
M  ZZM  32 64
M  ZZI  32 105
M  ZZM  33 64
M  ZZI  33 105
M  ZZM  34 1
M  ZZI  34 111
M  ZZM  35 5
M  ZZI  35 1
M  ZZM  36 5
M  ZZI  36 1
M  ZZM  37 5
M  ZZI  37 1
M  ZZM  38 65
M  ZZI  38 207
M  ZZM  39 39
M  ZZI  39 215
M  ZZM  40 63
M  ZZI  40 104
M  ZZM  41 1
M  ZZI  41 111
M  ZZM  42 5
M  ZZI  42 1
M  ZZM  43 5
M  ZZI  43 1
M  ZZM  44 5
M  ZZI  44 1
M  ZZM  45 1
M  ZZI  45 112
M  ZZM  46 5
M  ZZI  46 1
M  ZZM  47 5
M  ZZI  47 1
M  ZZM  48 37
M  ZZI  48 124
M  ZZM  49 37
M  ZZI  49 125
M  ZZM  50 5
M  ZZI  50 1
M  ZZM  51 37
M  ZZI  51 125
M  ZZM  52 5
M  ZZI  52 1
M  ZZM  53 37
M  ZZI  53 125
M  ZZM  54 5
M  ZZI  54 1
M  ZZM  55 37
M  ZZI  55 125
M  ZZM  56 5
M  ZZI  56 1
M  ZZM  57 37
M  ZZI  57 125
M  ZZM  58 5
M  ZZI  58 1
M  END
> <NAME>
Z109814672

> <Score>
-25.299939

> <Natom>
58

> <Nflex>
6

> <Hbond>
-2.658884

> <Hphob>
-8.14983

> <VwInt>
-31.173556

> <Eintl>
8.052402

> <Dsolv>
12.560809

> <SolEl>
7.636928

> <mfScore>
-109.77743

> <RecConf>
1

> <molLogP>
3.954184

$$$$
Z281173128
  MOLSOFT 11211612053D

 58 61  0  0  1  0  0  0  0  0999 V2000
  -31.8150   12.7769   71.5966 O   0  0  0
  -31.4619   11.4061   71.2796 S   0  0  0
  -30.0944   10.9235   71.3348 O   0  0  0
  -32.4820   10.3164   72.2415 C   0  0  0
  -31.8628    9.4700   72.5561 H   0  0  0
  -32.8637   10.8445   73.1205 H   0  0  0
  -33.5884    9.8647   71.3068 C   0  0  0
  -34.3663   10.6319   71.2615 H   0  0  0
  -34.0573    8.9420   71.6632 H   0  0  0
  -32.9476    9.6963   69.9329 C   0  0  2
  -32.2456    8.8540   69.9829 H   0  0  0
  -32.1605   10.9830   69.7033 C   0  0  0
  -32.8044   11.8126   69.3894 H   0  0  0
  -31.3500   10.8489   68.9839 H   0  0  0
  -33.9905    9.4286   68.8433 C   0  0  0
  -34.6311    8.6048   69.1712 H   0  0  0
  -34.6400   10.3028   68.7226 H   0  0  0
  -33.3798    9.0845   67.5250 C   0  0  0
  -34.1103    8.6891   66.4272 N   0  0  0
  -33.2633    8.5471   65.3606 C   0  0  0
  -33.4808    8.2274   64.0321 C   0  0  0
  -34.4706    8.0507   63.6225 H   0  0  0
  -32.3598    8.1432   63.2371 C   0  0  0
  -32.4745    7.8995   62.1861 H   0  0  0
  -31.0972    8.3387   63.7536 C   0  0  0
  -30.2366    8.2440   63.0988 H   0  0  0
  -30.9011    8.6400   65.0867 C   0  0  0
  -29.9033    8.7868   65.4849 H   0  0  0
  -32.0144    8.7688   65.8956 C   0  0  0
  -32.0969    9.0996   67.2246 N   0  0  0
  -35.5346    8.3827   66.3802 C   0  0  0
  -36.0333    8.8636   67.2271 H   0  0  0
  -35.9370    8.8613   65.4806 H   0  0  0
  -35.7718    6.8691   66.3592 C   0  0  2
  -35.0083    6.3510   65.7706 H   0  0  0
  -37.0010    6.6212   65.6843 O   0  0  0
  -37.7092    7.1029   66.1510 H   0  0  0
  -35.8122    6.2593   67.7610 C   0  0  0
  -34.8467    6.3775   68.2641 H   0  0  0
  -36.5943    6.7469   68.3509 H   0  0  0
  -36.1518    4.8725   67.6311 O   0  0  0
  -35.4695    4.0699   68.5405 C   0  0  0
  -34.6434    3.0998   67.9897 C   0  0  0
  -34.4957    2.9848   66.5012 C   0  0  0
  -33.7358    2.2468   66.2338 H   0  0  0
  -35.4389    2.6782   66.0441 H   0  0  0
  -34.1900    3.9408   66.0715 H   0  0  0
  -33.9795    2.2246   68.8312 C   0  0  0
  -33.3307    1.4551   68.4240 H   0  0  0
  -34.1397    2.3250   70.1967 C   0  0  0
  -33.6128    1.6390   70.8522 H   0  0  0
  -34.9803    3.2773   70.7359 C   0  0  0
  -35.1032    3.3180   71.8139 H   0  0  0
  -35.6853    4.1484   69.9189 C   0  0  0
  -36.6426    5.1223   70.5464 C   0  0  0
  -36.1592    6.0917   70.7018 H   0  0  0
  -37.5344    5.2533   69.9262 H   0  0  0
  -36.9921    4.7514   71.5147 H   0  0  0
  2  1  2
  2  3  2
  2  4  1
  2 12  1
  4  5  1
  4  6  1
  4  7  1
  7  8  1
  7  9  1
 10  7  1
 10 11  1
 10 12  1
 10 15  1
 12 13  1
 12 14  1
 15 16  1
 15 17  1
 15 18  1
 18 19  1
 18 30  2
 19 20  1
 19 31  1
 20 21  1
 20 29  2
 21 22  1
 21 23  2
 23 24  1
 23 25  1
 25 26  1
 25 27  2
 27 28  1
 27 29  1
 29 30  1
 31 32  1
 31 33  1
 34 31  1
 34 35  1
 34 36  1
 34 38  1
 36 37  1
 38 39  1
 38 40  1
 38 41  1
 41 42  1
 42 43  2
 42 54  1
 43 44  1
 43 48  1
 44 45  1
 44 46  1
 44 47  1
 48 49  1
 48 50  2
 50 51  1
 50 52  1
 52 53  1
 52 54  2
 54 55  1
 55 56  1
 55 57  1
 55 58  1
M  ZZC   1 o2
M  ZZC   2 s1
M  ZZC   3 o3
M  ZZC   4 c21
M  ZZC   5 h7
M  ZZC   6 h8
M  ZZC   7 c20
M  ZZC   8 h10
M  ZZC   9 h9
M  ZZC  10 c19
M  ZZC  11 h27
M  ZZC  12 c22
M  ZZC  13 h5
M  ZZC  14 h6
M  ZZC  15 c18
M  ZZC  16 h11
M  ZZC  17 h12
M  ZZC  18 c17
M  ZZC  19 n1
M  ZZC  20 c11
M  ZZC  21 c12
M  ZZC  22 h16
M  ZZC  23 c13
M  ZZC  24 h15
M  ZZC  25 c14
M  ZZC  26 h14
M  ZZC  27 c15
M  ZZC  28 h13
M  ZZC  29 c16
M  ZZC  30 n2
M  ZZC  31 c10
M  ZZC  32 h17
M  ZZC  33 h18
M  ZZC  34 c9
M  ZZC  35 h28
M  ZZC  36 o4
M  ZZC  37 h4
M  ZZC  38 c8
M  ZZC  39 h19
M  ZZC  40 h20
M  ZZC  41 o1
M  ZZC  42 c7
M  ZZC  43 c2
M  ZZC  44 c1
M  ZZC  45 h24
M  ZZC  46 h25
M  ZZC  47 h26
M  ZZC  48 c3
M  ZZC  49 h23
M  ZZC  50 c4
M  ZZC  51 h22
M  ZZC  52 c5
M  ZZC  53 h21
M  ZZC  54 c6
M  ZZC  55 c23
M  ZZC  56 h1
M  ZZC  57 h2
M  ZZC  58 h3
M  ZZM   1 32
M  ZZI   1 73
M  ZZM   2 18
M  ZZI   2 250
M  ZZM   3 32
M  ZZI   3 73
M  ZZM   4 1
M  ZZI   4 112
M  ZZM   5 5
M  ZZI   5 1
M  ZZM   6 5
M  ZZI   6 1
M  ZZM   7 1
M  ZZI   7 112
M  ZZM   8 5
M  ZZI   8 1
M  ZZM   9 5
M  ZZI   9 1
M  ZZM  10 1
M  ZZI  10 113
M  ZZM  11 5
M  ZZI  11 1
M  ZZM  12 1
M  ZZI  12 112
M  ZZM  13 5
M  ZZI  13 1
M  ZZM  14 5
M  ZZI  14 1
M  ZZM  15 1
M  ZZI  15 112
M  ZZM  16 5
M  ZZI  16 1
M  ZZM  17 5
M  ZZI  17 1
M  ZZM  18 63
M  ZZI  18 104
M  ZZM  19 39
M  ZZI  19 215
M  ZZM  20 63
M  ZZI  20 104
M  ZZM  21 37
M  ZZI  21 125
M  ZZM  22 5
M  ZZI  22 1
M  ZZM  23 37
M  ZZI  23 125
M  ZZM  24 5
M  ZZI  24 1
M  ZZM  25 37
M  ZZI  25 125
M  ZZM  26 5
M  ZZI  26 1
M  ZZM  27 37
M  ZZI  27 125
M  ZZM  28 5
M  ZZI  28 1
M  ZZM  29 64
M  ZZI  29 105
M  ZZM  30 66
M  ZZI  30 222
M  ZZM  31 1
M  ZZI  31 112
M  ZZM  32 5
M  ZZI  32 1
M  ZZM  33 5
M  ZZI  33 1
M  ZZM  34 1
M  ZZI  34 113
M  ZZM  35 5
M  ZZI  35 1
M  ZZM  36 6
M  ZZI  36 60
M  ZZM  37 21
M  ZZI  37 20
M  ZZM  38 1
M  ZZI  38 112
M  ZZM  39 5
M  ZZI  39 1
M  ZZM  40 5
M  ZZI  40 1
M  ZZM  41 6
M  ZZI  41 59
M  ZZM  42 37
M  ZZI  42 124
M  ZZM  43 37
M  ZZI  43 124
M  ZZM  44 1
M  ZZI  44 111
M  ZZM  45 5
M  ZZI  45 1
M  ZZM  46 5
M  ZZI  46 1
M  ZZM  47 5
M  ZZI  47 1
M  ZZM  48 37
M  ZZI  48 125
M  ZZM  49 5
M  ZZI  49 1
M  ZZM  50 37
M  ZZI  50 125
M  ZZM  51 5
M  ZZI  51 1
M  ZZM  52 37
M  ZZI  52 125
M  ZZM  53 5
M  ZZI  53 1
M  ZZM  54 37
M  ZZI  54 124
M  ZZM  55 1
M  ZZI  55 111
M  ZZM  56 5
M  ZZI  56 1
M  ZZM  57 5
M  ZZI  57 1
M  ZZM  58 5
M  ZZI  58 1
M  END
> <NAME>
Z281173128

> <Score>
-25.070501

> <Natom>
58

> <Nflex>
7

> <Hbond>
-2.71333

> <Hphob>
-7.777276

> <VwInt>
-31.52291

> <Eintl>
7.757281

> <Dsolv>
12.524622

> <SolEl>
7.47643

> <mfScore>
-126.162558

> <RecConf>
1

> <molLogP>
3.248739

$$$$
Z109818210
  MOLSOFT 11211612053D

 59 62  0  0  0  0  0  0  0  0999 V2000
  -33.5874    8.4336   62.8943 H   0  0  0
  -34.1053    7.5039   63.1352 C   0  0  0
  -33.4408    6.6702   62.9012 H   0  0  0
  -34.9867    7.4353   62.4964 H   0  0  0
  -34.4891    7.4677   64.5582 C   0  0  0
  -33.7756    8.0210   65.6497 C   0  0  0
  -34.5415    7.6912   66.7613 C   0  0  0
  -34.3892    8.0039   68.2095 C   0  0  0
  -34.4333    9.0724   68.4242 H   0  0  0
  -35.1785    7.5290   68.7977 H   0  0  0
  -33.4154    7.6632   68.5697 H   0  0  0
  -35.5685    6.9077   66.2789 N   0  0  0
  -35.6144    6.8508   64.9323 N   0  0  0
  -36.5175    6.0982   67.0435 C   0  0  0
  -36.9442    6.7280   67.8303 H   0  0  0
  -37.3349    5.8193   66.3730 H   0  0  0
  -35.8416    4.8627   67.5924 C   0  0  0
  -35.2383    3.9453   66.7410 C   0  0  0
  -35.2547    4.0976   65.6667 H   0  0  0
  -34.6056    2.8270   67.2405 C   0  0  0
  -34.1362    2.1253   66.5594 H   0  0  0
  -34.5710    2.5995   68.5989 C   0  0  0
  -34.0728    1.7180   68.9895 H   0  0  0
  -35.1782    3.4933   69.4557 C   0  0  0
  -35.1583    3.3128   70.5257 H   0  0  0
  -35.8116    4.6154   68.9580 C   0  0  0
  -36.2831    5.3049   69.6523 H   0  0  0
  -32.4940    8.7742   65.5068 C   0  0  0
  -31.7352    8.1464   65.0291 H   0  0  0
  -32.6417    9.6659   64.8893 H   0  0  0
  -31.9767    9.1569   66.7927 N   0  0  0
  -31.6095    8.4196   67.3793 H   0  0  0
  -32.1896   10.4157   67.3066 C   0  0  0
  -32.6270   11.3472   66.6427 O   0  0  0
  -31.9118   10.4892   68.7338 C   0  0  0
  -31.0590    9.6523   69.5088 C   0  0  0
  -30.4313    8.8469   69.1527 H   0  0  0
  -31.1602   10.0229   70.8295 C   0  0  0
  -30.4784    9.4437   72.0152 C   0  0  0
  -29.9563   10.2139   72.5901 H   0  0  0
  -31.1950    8.9404   72.6706 H   0  0  0
  -29.7371    8.7004   71.7094 H   0  0  0
  -32.0581   11.0691   70.8916 N   0  0  0
  -32.4903   11.3898   69.6161 C   0  0  0
  -33.4323   12.5011   69.3165 C   0  0  0
  -32.9330   13.2666   68.7177 H   0  0  0
  -34.2925   12.1343   68.7496 H   0  0  0
  -33.8152   12.9900   70.2116 H   0  0  0
  -32.5369   11.6826   72.1363 C   0  0  0
  -32.3720   10.9816   72.9587 H   0  0  0
  -33.6194   11.8122   72.0464 H   0  0  0
  -31.8470   12.9695   72.4076 C   0  0  0
  -30.5407   13.3997   72.3025 C   0  0  0
  -29.7043   12.8104   71.9573 H   0  0  0
  -30.5332   14.7556   72.7081 C   0  0  0
  -29.6948   15.4339   72.7391 H   0  0  0
  -31.8333   15.0690   73.0270 C   0  0  0
  -32.3303   15.9753   73.3401 H   0  0  0
  -32.6367   13.9826   72.8666 O   0  0  0
  2  1  1
  2  3  1
  2  4  1
  2  5  1
  5  6  1
  5 13  2
  6  7  2
  6 28  1
  7  8  1
  7 12  1
  8  9  1
  8 10  1
  8 11  1
 12 13  1
 12 14  1
 14 15  1
 14 16  1
 14 17  1
 17 18  2
 17 26  1
 18 19  1
 18 20  1
 20 21  1
 20 22  2
 22 23  1
 22 24  1
 24 25  1
 24 26  2
 26 27  1
 28 29  1
 28 30  1
 28 31  1
 31 32  1
 31 33  1
 33 34  2
 33 35  1
 35 36  1
 35 44  2
 36 37  1
 36 38  2
 38 39  1
 38 43  1
 39 40  1
 39 41  1
 39 42  1
 43 44  1
 43 49  1
 44 45  1
 45 46  1
 45 47  1
 45 48  1
 49 50  1
 49 51  1
 49 52  1
 52 53  2
 52 59  1
 53 54  1
 53 55  1
 55 56  1
 55 57  2
 57 58  1
 57 59  1
M  ZZC   1 h1
M  ZZC   2 c25
M  ZZC   3 h2
M  ZZC   4 h3
M  ZZC   5 c15
M  ZZC   6 c14
M  ZZC   7 c16
M  ZZC   8 c17
M  ZZC   9 h11
M  ZZC  10 h12
M  ZZC  11 h13
M  ZZC  12 n4
M  ZZC  13 n3
M  ZZC  14 c18
M  ZZC  15 h10
M  ZZC  16 h9
M  ZZC  17 c19
M  ZZC  18 c20
M  ZZC  19 h8
M  ZZC  20 c21
M  ZZC  21 h7
M  ZZC  22 c22
M  ZZC  23 h6
M  ZZC  24 c23
M  ZZC  25 h5
M  ZZC  26 c24
M  ZZC  27 h4
M  ZZC  28 c13
M  ZZC  29 h14
M  ZZC  30 h15
M  ZZC  31 n2
M  ZZC  32 h16
M  ZZC  33 c12
M  ZZC  34 o2
M  ZZC  35 c4
M  ZZC  36 c3
M  ZZC  37 h25
M  ZZC  38 c2
M  ZZC  39 c1
M  ZZC  40 h26
M  ZZC  41 h27
M  ZZC  42 h28
M  ZZC  43 n1
M  ZZC  44 c5
M  ZZC  45 c11
M  ZZC  46 h17
M  ZZC  47 h18
M  ZZC  48 h19
M  ZZC  49 c6
M  ZZC  50 h23
M  ZZC  51 h24
M  ZZC  52 c7
M  ZZC  53 c8
M  ZZC  54 h22
M  ZZC  55 c9
M  ZZC  56 h21
M  ZZC  57 c10
M  ZZC  58 h20
M  ZZC  59 o1
M  ZZM   1 5
M  ZZI   1 1
M  ZZM   2 1
M  ZZI   2 111
M  ZZM   3 5
M  ZZI   3 1
M  ZZM   4 5
M  ZZI   4 1
M  ZZM   5 64
M  ZZI   5 105
M  ZZM   6 64
M  ZZI   6 105
M  ZZM   7 63
M  ZZI   7 104
M  ZZM   8 1
M  ZZI   8 111
M  ZZM   9 5
M  ZZI   9 1
M  ZZM  10 5
M  ZZI  10 1
M  ZZM  11 5
M  ZZI  11 1
M  ZZM  12 39
M  ZZI  12 215
M  ZZM  13 65
M  ZZI  13 207
M  ZZM  14 1
M  ZZI  14 112
M  ZZM  15 5
M  ZZI  15 1
M  ZZM  16 5
M  ZZI  16 1
M  ZZM  17 37
M  ZZI  17 124
M  ZZM  18 37
M  ZZI  18 125
M  ZZM  19 5
M  ZZI  19 1
M  ZZM  20 37
M  ZZI  20 125
M  ZZM  21 5
M  ZZI  21 1
M  ZZM  22 37
M  ZZI  22 125
M  ZZM  23 5
M  ZZI  23 1
M  ZZM  24 37
M  ZZI  24 125
M  ZZM  25 5
M  ZZI  25 1
M  ZZM  26 37
M  ZZI  26 125
M  ZZM  27 5
M  ZZI  27 1
M  ZZM  28 1
M  ZZI  28 112
M  ZZM  29 5
M  ZZI  29 1
M  ZZM  30 5
M  ZZI  30 1
M  ZZM  31 10
M  ZZI  31 211
M  ZZM  32 28
M  ZZI  32 11
M  ZZM  33 3
M  ZZI  33 121
M  ZZM  34 7
M  ZZI  34 81
M  ZZM  35 64
M  ZZI  35 105
M  ZZM  36 64
M  ZZI  36 105
M  ZZM  37 5
M  ZZI  37 1
M  ZZM  38 63
M  ZZI  38 104
M  ZZM  39 1
M  ZZI  39 111
M  ZZM  40 5
M  ZZI  40 1
M  ZZM  41 5
M  ZZI  41 1
M  ZZM  42 5
M  ZZI  42 1
M  ZZM  43 39
M  ZZI  43 215
M  ZZM  44 63
M  ZZI  44 104
M  ZZM  45 1
M  ZZI  45 111
M  ZZM  46 5
M  ZZI  46 1
M  ZZM  47 5
M  ZZI  47 1
M  ZZM  48 5
M  ZZI  48 1
M  ZZM  49 1
M  ZZI  49 112
M  ZZM  50 5
M  ZZI  50 1
M  ZZM  51 5
M  ZZI  51 1
M  ZZM  52 63
M  ZZI  52 104
M  ZZM  53 64
M  ZZI  53 105
M  ZZM  54 5
M  ZZI  54 1
M  ZZM  55 64
M  ZZI  55 105
M  ZZM  56 5
M  ZZI  56 1
M  ZZM  57 63
M  ZZI  57 104
M  ZZM  58 5
M  ZZI  58 1
M  ZZM  59 59
M  ZZI  59 56
M  END
> <NAME>
Z109818210

> <Score>
-29.004795

> <Natom>
59

> <Nflex>
6

> <Hbond>
-3.133851

> <Hphob>
-9.094554

> <VwInt>
-33.411785

> <Eintl>
8.692146

> <Dsolv>
10.885903

> <SolEl>
10.097813

> <mfScore>
-102.102195

> <RecConf>
1

> <molLogP>
3.397839

$$$$
Z200627868
  MOLSOFT 11211612053D

 59 62  0  0  1  0  0  0  0  0999 V2000
  -34.3670    2.5825   66.1228 F   0  0  0
  -34.8654    3.2642   67.1628 C   0  0  0
  -34.6019    2.8377   68.4505 C   0  0  0
  -33.8094    1.5898   68.6832 C   0  0  0
  -33.5890    1.4557   69.7461 H   0  0  0
  -34.3756    0.7203   68.3399 H   0  0  0
  -32.8587    1.6333   68.1461 H   0  0  0
  -35.1287    3.5651   69.5044 C   0  0  0
  -34.9444    3.2598   70.5301 H   0  0  0
  -35.9181    4.6724   69.2610 C   0  0  0
  -36.3372    5.2156   70.1032 H   0  0  0
  -36.2040    5.0694   67.9622 C   0  0  0
  -35.6436    4.3673   66.9091 C   0  0  0
  -35.8276    4.6589   65.8800 H   0  0  0
  -37.1237    6.2228   67.6918 C   0  0  0
  -37.8023    6.3690   68.5378 H   0  0  0
  -37.7406    6.0274   66.8107 H   0  0  0
  -36.3977    7.4467   67.4966 N   0  0  0
  -36.0744    7.9442   68.3169 H   0  0  0
  -36.1203    7.9345   66.2361 C   0  0  0
  -36.3921    7.3464   65.1974 O   0  0  0
  -35.4363    9.2889   66.2752 C   0  0  0
  -35.8949    9.8772   67.0762 H   0  0  0
  -35.6362    9.8361   65.3495 H   0  0  0
  -33.9931    9.1464   66.5418 N   0  0  0
  -33.4980    8.8525   67.8815 C   0  0  0
  -33.4648    7.7653   68.0259 H   0  0  0
  -34.1872    9.2506   68.6323 H   0  0  0
  -32.1131    9.4588   68.0350 C   0  0  1
  -32.0981   10.5354   67.8265 H   0  0  0
  -31.6130    9.1877   69.4508 C   0  0  0
  -30.9390    8.1969   69.7025 O   0  0  0
  -31.9395   10.1219   70.4327 N   0  0  0
  -33.0003   11.1216   70.3292 C   0  0  0
  -33.3384   11.2505   69.3003 H   0  0  0
  -33.8553   10.7379   70.8964 H   0  0  0
  -32.5687   12.4641   70.8856 C   0  0  0
  -33.4255   13.1435   70.9138 H   0  0  0
  -31.8304   12.9009   70.2087 H   0  0  0
  -31.9547   12.3385   72.2707 C   0  0  0
  -32.7254   12.0401   72.9897 H   0  0  0
  -31.5717   13.3102   72.5976 H   0  0  0
  -30.8301   11.3147   72.2657 C   0  0  0
  -30.4202   11.1988   73.2729 H   0  0  0
  -30.0155   11.6749   71.6269 H   0  0  0
  -31.3301    9.9768   71.7467 C   0  0  0
  -30.4999    9.2654   71.7038 H   0  0  0
  -32.0833    9.5547   72.4212 H   0  0  0
  -31.1838    8.8274   67.1419 O   0  0  0
  -31.6971    8.7122   65.8492 C   0  0  0
  -33.0471    8.8584   65.5298 C   0  0  0
  -33.4066    8.6927   64.1955 C   0  0  0
  -34.4400    8.7686   63.8799 H   0  0  0
  -32.4678    8.3890   63.2316 C   0  0  0
  -32.7736    8.2254   62.2044 H   0  0  0
  -31.1427    8.2648   63.5686 C   0  0  0
  -30.4025    8.0327   62.8101 H   0  0  0
  -30.7644    8.4184   64.8809 C   0  0  0
  -29.7215    8.3061   65.1556 H   0  0  0
  2  1  1
  2  3  2
  2 13  1
  3  4  1
  3  8  1
  4  5  1
  4  6  1
  4  7  1
  8  9  1
  8 10  2
 10 11  1
 10 12  1
 12 13  2
 12 15  1
 13 14  1
 15 16  1
 15 17  1
 15 18  1
 18 19  1
 18 20  1
 20 21  2
 20 22  1
 22 23  1
 22 24  1
 22 25  1
 25 26  1
 25 51  1
 26 27  1
 26 28  1
 29 26  1
 29 30  1
 29 31  1
 29 49  1
 31 32  2
 31 33  1
 33 34  1
 33 46  1
 34 35  1
 34 36  1
 34 37  1
 37 38  1
 37 39  1
 37 40  1
 40 41  1
 40 42  1
 40 43  1
 43 44  1
 43 45  1
 43 46  1
 46 47  1
 46 48  1
 49 50  1
 50 51  1
 50 58  2
 51 52  2
 52 53  1
 52 54  1
 54 55  1
 54 56  2
 56 57  1
 56 58  1
 58 59  1
M  ZZC   1 f1
M  ZZC   2 c7
M  ZZC   3 c2
M  ZZC   4 c1
M  ZZC   5 h25
M  ZZC   6 h26
M  ZZC   7 h27
M  ZZC   8 c3
M  ZZC   9 h24
M  ZZC  10 c4
M  ZZC  11 h23
M  ZZC  12 c5
M  ZZC  13 c6
M  ZZC  14 h22
M  ZZC  15 c8
M  ZZC  16 h20
M  ZZC  17 h21
M  ZZC  18 n1
M  ZZC  19 h19
M  ZZC  20 c9
M  ZZC  21 o1
M  ZZC  22 c10
M  ZZC  23 h17
M  ZZC  24 h18
M  ZZC  25 n2
M  ZZC  26 c11
M  ZZC  27 h15
M  ZZC  28 h16
M  ZZC  29 c12
M  ZZC  30 h28
M  ZZC  31 c19
M  ZZC  32 o3
M  ZZC  33 n3
M  ZZC  34 c20
M  ZZC  35 h10
M  ZZC  36 h9
M  ZZC  37 c21
M  ZZC  38 h7
M  ZZC  39 h8
M  ZZC  40 c22
M  ZZC  41 h5
M  ZZC  42 h6
M  ZZC  43 c23
M  ZZC  44 h3
M  ZZC  45 h4
M  ZZC  46 c24
M  ZZC  47 h1
M  ZZC  48 h2
M  ZZC  49 o2
M  ZZC  50 c13
M  ZZC  51 c14
M  ZZC  52 c15
M  ZZC  53 h14
M  ZZC  54 c16
M  ZZC  55 h13
M  ZZC  56 c17
M  ZZC  57 h12
M  ZZC  58 c18
M  ZZC  59 h11
M  ZZM   1 11
M  ZZI   1 90
M  ZZM   2 37
M  ZZI   2 124
M  ZZM   3 37
M  ZZI   3 124
M  ZZM   4 1
M  ZZI   4 111
M  ZZM   5 5
M  ZZI   5 1
M  ZZM   6 5
M  ZZI   6 1
M  ZZM   7 5
M  ZZI   7 1
M  ZZM   8 37
M  ZZI   8 125
M  ZZM   9 5
M  ZZI   9 1
M  ZZM  10 37
M  ZZI  10 125
M  ZZM  11 5
M  ZZI  11 1
M  ZZM  12 37
M  ZZI  12 124
M  ZZM  13 37
M  ZZI  13 125
M  ZZM  14 5
M  ZZI  14 1
M  ZZM  15 1
M  ZZI  15 112
M  ZZM  16 5
M  ZZI  16 1
M  ZZM  17 5
M  ZZI  17 1
M  ZZM  18 10
M  ZZI  18 211
M  ZZM  19 28
M  ZZI  19 11
M  ZZM  20 3
M  ZZI  20 121
M  ZZM  21 7
M  ZZI  21 81
M  ZZM  22 1
M  ZZI  22 112
M  ZZM  23 5
M  ZZI  23 1
M  ZZM  24 5
M  ZZI  24 1
M  ZZM  25 40
M  ZZI  25 193
M  ZZM  26 1
M  ZZI  26 112
M  ZZM  27 5
M  ZZI  27 1
M  ZZM  28 5
M  ZZI  28 1
M  ZZM  29 1
M  ZZI  29 113
M  ZZM  30 5
M  ZZI  30 1
M  ZZM  31 3
M  ZZI  31 121
M  ZZM  32 7
M  ZZI  32 81
M  ZZM  33 10
M  ZZI  33 192
M  ZZM  34 1
M  ZZI  34 112
M  ZZM  35 5
M  ZZI  35 1
M  ZZM  36 5
M  ZZI  36 1
M  ZZM  37 1
M  ZZI  37 112
M  ZZM  38 5
M  ZZI  38 1
M  ZZM  39 5
M  ZZI  39 1
M  ZZM  40 1
M  ZZI  40 112
M  ZZM  41 5
M  ZZI  41 1
M  ZZM  42 5
M  ZZI  42 1
M  ZZM  43 1
M  ZZI  43 112
M  ZZM  44 5
M  ZZI  44 1
M  ZZM  45 5
M  ZZI  45 1
M  ZZM  46 1
M  ZZI  46 112
M  ZZM  47 5
M  ZZI  47 1
M  ZZM  48 5
M  ZZI  48 1
M  ZZM  49 6
M  ZZI  49 59
M  ZZM  50 37
M  ZZI  50 124
M  ZZM  51 37
M  ZZI  51 124
M  ZZM  52 37
M  ZZI  52 125
M  ZZM  53 5
M  ZZI  53 1
M  ZZM  54 37
M  ZZI  54 125
M  ZZM  55 5
M  ZZI  55 1
M  ZZM  56 37
M  ZZI  56 125
M  ZZM  57 5
M  ZZI  57 1
M  ZZM  58 37
M  ZZI  58 125
M  ZZM  59 5
M  ZZI  59 1
M  END
> <NAME>
Z200627868

> <Score>
-27.212132

> <Natom>
59

> <Nflex>
6

> <Hbond>
-2.524449

> <Hphob>
-7.777814

> <VwInt>
-31.735284

> <Eintl>
6.534686

> <Dsolv>
12.482594

> <SolEl>
4.786662

> <mfScore>
-102.469237

> <RecConf>
1

> <molLogP>
3.318995

$$$$
Z134750964
  MOLSOFT 11211612053D

 59 63  0  0  1  0  0  0  0  0999 V2000
  -37.8154    6.5828   72.9128 O   0  0  0
  -37.4661    5.6808   71.8313 S   0  0  0
  -38.3904    5.4580   70.7381 O   0  0  0
  -37.1098    4.0930   72.5628 C   0  0  0
  -36.2679    4.2001   73.2521 H   0  0  0
  -36.8853    3.3696   71.7753 H   0  0  0
  -37.9994    3.7665   73.1088 H   0  0  0
  -35.9099    6.2477   71.1441 C   0  0  0
  -35.1907    6.3031   71.9669 H   0  0  0
  -36.0493    7.2575   70.7583 H   0  0  0
  -35.4628    5.2815   70.1067 C   0  0  0
  -35.7403    5.3438   68.7501 N   0  0  0
  -35.1692    4.2434   68.1593 C   0  0  0
  -35.1250    3.7923   66.8545 C   0  0  0
  -35.5775    4.3254   66.0258 H   0  0  0
  -34.4553    2.6082   66.6459 C   0  0  0
  -34.3774    2.2359   65.6352 H   0  0  0
  -33.8923    1.8913   67.6813 C   0  0  0
  -33.3806    0.9579   67.4800 H   0  0  0
  -33.9550    2.3449   68.9775 C   0  0  0
  -33.5093    1.7841   69.7909 H   0  0  0
  -34.5924    3.5502   69.2044 C   0  0  0
  -34.7555    4.2104   70.3872 N   0  0  0
  -36.6584    6.2786   68.0879 C   0  0  0
  -36.9983    7.0037   68.8201 H   0  0  0
  -37.5432    5.7081   67.7985 H   0  0  0
  -36.1279    7.0040   66.8614 C   0  0  0
  -36.4636    6.6639   65.7331 O   0  0  0
  -35.3226    8.1038   67.1267 N   0  0  0
  -34.8908    9.0648   66.1327 C   0  0  2
  -35.7559    9.3771   65.5358 H   0  0  0
  -33.8363    8.4909   65.2447 C   0  0  0
  -32.4847    8.2468   65.3950 C   0  0  0
  -31.8977    8.4038   66.2891 H   0  0  0
  -32.0148    7.8183   64.1341 C   0  0  0
  -30.9987    7.5802   63.8558 H   0  0  0
  -33.1135    7.7682   63.3097 C   0  0  0
  -33.2600    7.4952   62.2750 H   0  0  0
  -34.2267    8.1796   63.9744 O   0  0  0
  -34.3477   10.2105   66.9623 C   0  0  0
  -35.0314   11.0613   66.9906 H   0  0  0
  -33.3551   10.5533   66.6525 H   0  0  0
  -34.3340    9.5644   68.3176 C   0  0  0
  -34.9310    8.4166   68.3923 N   0  0  0
  -33.6758   10.2261   69.4711 C   0  0  0
  -33.0855   11.4734   69.3302 C   0  0  0
  -33.1278   12.0285   68.3986 H   0  0  0
  -32.3959   12.0246   70.3891 C   0  0  0
  -31.9262   12.9863   70.2417 H   0  0  0
  -32.3052   11.3416   71.5938 C   0  0  0
  -32.9417   10.1261   71.7453 C   0  0  0
  -32.8830    9.5992   72.6924 H   0  0  0
  -33.6183    9.5597   70.6842 C   0  0  0
  -34.0765    8.5856   70.8106 H   0  0  0
  -31.5892   11.7977   72.7034 O   0  0  0
  -30.6972   12.8757   72.3982 C   0  0  0
  -30.0561   13.0382   73.2675 H   0  0  0
  -31.2517   13.8024   72.2208 H   0  0  0
  -30.0441   12.6277   71.5543 H   0  0  0
  2  1  2
  2  3  2
  2  4  1
  2  8  1
  4  5  1
  4  6  1
  4  7  1
  8  9  1
  8 10  1
  8 11  1
 11 12  1
 11 23  2
 12 13  1
 12 24  1
 13 14  1
 13 22  2
 14 15  1
 14 16  2
 16 17  1
 16 18  1
 18 19  1
 18 20  2
 20 21  1
 20 22  1
 22 23  1
 24 25  1
 24 26  1
 24 27  1
 27 28  2
 27 29  1
 30 29  1
 29 44  1
 30 31  1
 30 32  1
 30 40  1
 32 33  2
 32 39  1
 33 34  1
 33 35  1
 35 36  1
 35 37  2
 37 38  1
 37 39  1
 40 41  1
 40 42  1
 40 43  1
 43 44  2
 43 45  1
 45 46  1
 45 53  2
 46 47  1
 46 48  2
 48 49  1
 48 50  1
 50 51  2
 50 55  1
 51 52  1
 51 53  1
 53 54  1
 55 56  1
 56 57  1
 56 58  1
 56 59  1
M  ZZC   1 o4
M  ZZC   2 s1
M  ZZC   3 o5
M  ZZC   4 c25
M  ZZC   5 h1
M  ZZC   6 h2
M  ZZC   7 h3
M  ZZC   8 c24
M  ZZC   9 h4
M  ZZC  10 h5
M  ZZC  11 c23
M  ZZC  12 n3
M  ZZC  13 c17
M  ZZC  14 c18
M  ZZC  15 h9
M  ZZC  16 c19
M  ZZC  17 h8
M  ZZC  18 c20
M  ZZC  19 h7
M  ZZC  20 c21
M  ZZC  21 h6
M  ZZC  22 c22
M  ZZC  23 n4
M  ZZC  24 c16
M  ZZC  25 h10
M  ZZC  26 h11
M  ZZC  27 c15
M  ZZC  28 o3
M  ZZC  29 n2
M  ZZC  30 c9
M  ZZC  31 h24
M  ZZC  32 c11
M  ZZC  33 c12
M  ZZC  34 h14
M  ZZC  35 c13
M  ZZC  36 h13
M  ZZC  37 c14
M  ZZC  38 h12
M  ZZC  39 o2
M  ZZC  40 c10
M  ZZC  41 h15
M  ZZC  42 h16
M  ZZC  43 c8
M  ZZC  44 n1
M  ZZC  45 c5
M  ZZC  46 c4
M  ZZC  47 h19
M  ZZC  48 c3
M  ZZC  49 h20
M  ZZC  50 c2
M  ZZC  51 c7
M  ZZC  52 h17
M  ZZC  53 c6
M  ZZC  54 h18
M  ZZC  55 o1
M  ZZC  56 c1
M  ZZC  57 h21
M  ZZC  58 h22
M  ZZC  59 h23
M  ZZM   1 32
M  ZZI   1 73
M  ZZM   2 18
M  ZZI   2 250
M  ZZM   3 32
M  ZZI   3 73
M  ZZM   4 1
M  ZZI   4 111
M  ZZM   5 5
M  ZZI   5 1
M  ZZM   6 5
M  ZZI   6 1
M  ZZM   7 5
M  ZZI   7 1
M  ZZM   8 1
M  ZZI   8 112
M  ZZM   9 5
M  ZZI   9 1
M  ZZM  10 5
M  ZZI  10 1
M  ZZM  11 63
M  ZZI  11 104
M  ZZM  12 39
M  ZZI  12 215
M  ZZM  13 63
M  ZZI  13 104
M  ZZM  14 37
M  ZZI  14 125
M  ZZM  15 5
M  ZZI  15 1
M  ZZM  16 37
M  ZZI  16 125
M  ZZM  17 5
M  ZZI  17 1
M  ZZM  18 37
M  ZZI  18 125
M  ZZM  19 5
M  ZZI  19 1
M  ZZM  20 37
M  ZZI  20 125
M  ZZM  21 5
M  ZZI  21 1
M  ZZM  22 64
M  ZZI  22 105
M  ZZM  23 66
M  ZZI  23 222
M  ZZM  24 1
M  ZZI  24 112
M  ZZM  25 5
M  ZZI  25 1
M  ZZM  26 5
M  ZZI  26 1
M  ZZM  27 3
M  ZZI  27 121
M  ZZM  28 7
M  ZZI  28 81
M  ZZM  29 10
M  ZZI  29 192
M  ZZM  30 1
M  ZZI  30 113
M  ZZM  31 5
M  ZZI  31 1
M  ZZM  32 63
M  ZZI  32 104
M  ZZM  33 64
M  ZZI  33 105
M  ZZM  34 5
M  ZZI  34 1
M  ZZM  35 64
M  ZZI  35 105
M  ZZM  36 5
M  ZZI  36 1
M  ZZM  37 63
M  ZZI  37 104
M  ZZM  38 5
M  ZZI  38 1
M  ZZM  39 59
M  ZZI  39 56
M  ZZM  40 1
M  ZZI  40 112
M  ZZM  41 5
M  ZZI  41 1
M  ZZM  42 5
M  ZZI  42 1
M  ZZM  43 3
M  ZZI  43 121
M  ZZM  44 9
M  ZZI  44 220
M  ZZM  45 37
M  ZZI  45 124
M  ZZM  46 37
M  ZZI  46 125
M  ZZM  47 5
M  ZZI  47 1
M  ZZM  48 37
M  ZZI  48 125
M  ZZM  49 5
M  ZZI  49 1
M  ZZM  50 37
M  ZZI  50 124
M  ZZM  51 37
M  ZZI  51 125
M  ZZM  52 5
M  ZZI  52 1
M  ZZM  53 37
M  ZZI  53 125
M  ZZM  54 5
M  ZZI  54 1
M  ZZM  55 6
M  ZZI  55 59
M  ZZM  56 1
M  ZZI  56 111
M  ZZM  57 5
M  ZZI  57 1
M  ZZM  58 5
M  ZZI  58 1
M  ZZM  59 5
M  ZZI  59 1
M  END
> <NAME>
Z134750964

> <Score>
-25.343523

> <Natom>
59

> <Nflex>
6

> <Hbond>
-1.343041

> <Hphob>
-8.232531

> <VwInt>
-34.701036

> <Eintl>
7.105311

> <Dsolv>
12.36433

> <SolEl>
8.178718

> <mfScore>
-105.618487

> <RecConf>
1

> <molLogP>
1.990981

$$$$
